Disulfiram.pdb
  RxDock  02242110553D
librxdock.so/0.1.0
 16 15  0  0  0  0  0  0  0  0999 V2000
  -46.1433   -2.4884   14.8863 S   0  0  0  0  0  0
  -45.0543   -0.7736   15.2409 S   0  0  0  0  0  0
  -47.8712   -0.3889   13.6770 S   0  0  0  0  0  0
  -47.4309    0.1551   16.7723 S   0  0  0  0  0  0
  -48.8508   -2.5640   15.0632 N   0  0  0  0  0  0
  -44.9132   -0.1077   17.8700 N   0  0  0  0  0  0
  -50.2563   -2.1887   14.8743 C   0  0  0  0  0  0
  -48.6742   -3.7901   15.8450 C   0  0  0  0  0  0
  -45.3801    0.3216   19.1910 C   0  0  0  0  0  0
  -43.4863   -0.4434   17.8351 C   0  0  0  0  0  0
  -50.7554   -1.3201   16.0108 C   0  0  0  0  0  0
  -48.2874   -3.4851   17.2772 C   0  0  0  0  0  0
  -46.2489   -0.7337   19.8425 C   0  0  0  0  0  0
  -43.2644   -1.9348   17.9742 C   0  0  0  0  0  0
  -47.7593   -1.8235   14.5661 C   0  0  0  0  0  0
  -45.7781   -0.2007   16.7601 C   0  0  0  0  0  0
  1  2  1  0  0  0
  1 15  1  0  0  0
  2 16  1  0  0  0
  3 15  2  0  0  0
  4 16  2  0  0  0
  5  7  1  0  0  0
  5  8  1  0  0  0
  5 15  1  0  0  0
  6  9  1  0  0  0
  6 10  1  0  0  0
  6 16  1  0  0  0
  7 11  1  0  0  0
  8 12  1  0  0  0
  9 13  1  0  0  0
 10 14  1  0  0  0
M  END
>  <CHROM.0>
64.36372218,178.57261097,55.99396211

>  <CHROM.1>
66.88099467,38.64144682,-59.81124782,88.22501147,-101.41180172,-107.94769044
97.16980149,-46.82648798,-1.25370066,16.18406346,-2.53172346,0.23944203,1.47583903

>  <HEADER>
                                                                          

>  <MASTER>
        0    0    0    0    0    0    0    0   36    0   36    0          

>  <Name>
Disulfiram.pdb

>  <RI>
-2.6e+08

>  <Rbt.Current_Directory>
/root/miniconda3/envs/rdock/share/rxdock-2013.1.1_148c5bd1-0/data/ligands/prepped_ligands/Disulfiram

>  <Rbt.Executable>
rbdock/0.1.0

>  <Rbt.Library>
librxdock.so/0.1.0

>  <Rbt.Parameter_File>
/root/miniconda3/envs/rdock/share/rxdock-2013.1.1_148c5bd1-0/data/scripts/dock.prm

>  <Rbt.Receptor>
def.prm

>  <SCORE>
-8.07949

>  <SCORE.INTER>
-4.71695

>  <SCORE.INTER.CONST>
1

>  <SCORE.INTER.POLAR>
-0.261041

>  <SCORE.INTER.REPUL>
0

>  <SCORE.INTER.ROT>
7

>  <SCORE.INTER.VDW>
-16.2294

>  <SCORE.INTER.norm>
-0.294809

>  <SCORE.INTRA>
-2.33747

>  <SCORE.INTRA.DIHEDRAL>
-6.05219

>  <SCORE.INTRA.DIHEDRAL.0>
20.6363

>  <SCORE.INTRA.POLAR>
0

>  <SCORE.INTRA.POLAR.0>
0

>  <SCORE.INTRA.REPUL>
0

>  <SCORE.INTRA.REPUL.0>
0

>  <SCORE.INTRA.VDW>
0.688629

>  <SCORE.INTRA.VDW.0>
-2.69438

>  <SCORE.INTRA.norm>
-0.146092

>  <SCORE.RESTR>
0

>  <SCORE.RESTR.CAVITY>
0

>  <SCORE.RESTR.norm>
0

>  <SCORE.SYSTEM>
-1.02508

>  <SCORE.SYSTEM.CONST>
0

>  <SCORE.SYSTEM.DIHEDRAL>
0.096525

>  <SCORE.SYSTEM.VDW>
-1.07334

>  <SCORE.SYSTEM.norm>
-0.0640672

>  <SCORE.heavy>
16

>  <SCORE.norm>
-0.504968

>  <TITLE>
    Disulfiram                                                            

$$$$
Disulfiram.pdb
  RxDock  02242110553D
librxdock.so/0.1.0
 16 15  0  0  0  0  0  0  0  0999 V2000
  -47.3953   -2.1026   17.2347 S   0  0  0  0  0  0
  -46.3771   -0.3514   17.6202 S   0  0  0  0  0  0
  -47.2304   -0.6711   14.6309 S   0  0  0  0  0  0
  -46.6716   -0.7459   20.5551 S   0  0  0  0  0  0
  -49.1835   -2.5233   15.2364 N   0  0  0  0  0  0
  -44.2655   -0.9489   19.2201 N   0  0  0  0  0  0
  -49.8396   -2.4203   13.9284 C   0  0  0  0  0  0
  -49.8434   -3.4610   16.1480 C   0  0  0  0  0  0
  -43.5431   -1.2797   20.4513 C   0  0  0  0  0  0
  -43.4104   -0.9249   18.0292 C   0  0  0  0  0  0
  -49.1509   -3.2863   12.8935 C   0  0  0  0  0  0
  -49.1232   -4.7926   16.1926 C   0  0  0  0  0  0
  -43.2523   -0.0419   21.2738 C   0  0  0  0  0  0
  -43.4871   -2.2301   17.2656 C   0  0  0  0  0  0
  -48.0397   -1.7887   15.6091 C   0  0  0  0  0  0
  -45.6539   -0.7024   19.2057 C   0  0  0  0  0  0
  1  2  1  0  0  0
  1 15  1  0  0  0
  2 16  1  0  0  0
  3 15  2  0  0  0
  4 16  2  0  0  0
  5  7  1  0  0  0
  5  8  1  0  0  0
  5 15  1  0  0  0
  6  9  1  0  0  0
  6 10  1  0  0  0
  6 16  1  0  0  0
  7 11  1  0  0  0
  8 12  1  0  0  0
  9 13  1  0  0  0
 10 14  1  0  0  0
M  END
>  <CHROM.0>
64.16804245,61.95193084,-65.75844975

>  <CHROM.1>
-176.84233709,24.81790783,-72.18837932,-97.96648750,100.43046808,101.47022055
97.28438228,-46.71042551,-1.59080515,17.28258471,2.33535164,-0.42146880,-1.55833150

>  <HEADER>
                                                                          

>  <MASTER>
        0    0    0    0    0    0    0    0   36    0   36    0          

>  <Name>
Disulfiram.pdb

>  <RI>
-2.6e+08

>  <Rbt.Current_Directory>
/root/miniconda3/envs/rdock/share/rxdock-2013.1.1_148c5bd1-0/data/ligands/prepped_ligands/Disulfiram

>  <Rbt.Executable>
rbdock/0.1.0

>  <Rbt.Library>
librxdock.so/0.1.0

>  <Rbt.Parameter_File>
/root/miniconda3/envs/rdock/share/rxdock-2013.1.1_148c5bd1-0/data/scripts/dock.prm

>  <Rbt.Receptor>
def.prm

>  <SCORE>
-5.49961

>  <SCORE.INTER>
-2.70238

>  <SCORE.INTER.CONST>
1

>  <SCORE.INTER.POLAR>
-0.00855075

>  <SCORE.INTER.REPUL>
0

>  <SCORE.INTER.ROT>
7

>  <SCORE.INTER.VDW>
-15.0733

>  <SCORE.INTER.norm>
-0.168898

>  <SCORE.INTRA>
-1.84826

>  <SCORE.INTRA.DIHEDRAL>
-6.74084

>  <SCORE.INTRA.DIHEDRAL.0>
20.6363

>  <SCORE.INTRA.POLAR>
0

>  <SCORE.INTRA.POLAR.0>
0

>  <SCORE.INTRA.REPUL>
0

>  <SCORE.INTRA.REPUL.0>
0

>  <SCORE.INTRA.VDW>
1.52216

>  <SCORE.INTRA.VDW.0>
-2.69438

>  <SCORE.INTRA.norm>
-0.115516

>  <SCORE.RESTR>
0

>  <SCORE.RESTR.CAVITY>
0

>  <SCORE.RESTR.norm>
0

>  <SCORE.SYSTEM>
-0.948969

>  <SCORE.SYSTEM.CONST>
0

>  <SCORE.SYSTEM.DIHEDRAL>
0.144444

>  <SCORE.SYSTEM.VDW>
-1.02119

>  <SCORE.SYSTEM.norm>
-0.0593106

>  <SCORE.heavy>
16

>  <SCORE.norm>
-0.343725

>  <TITLE>
    Disulfiram                                                            

$$$$
Disulfiram.pdb
  RxDock  02242110553D
librxdock.so/0.1.0
 16 15  0  0  0  0  0  0  0  0999 V2000
  -44.7826   -2.2339   16.0845 S   0  0  0  0  0  0
  -46.1508   -2.7389   14.6267 S   0  0  0  0  0  0
  -46.8218   -0.0666   16.1150 S   0  0  0  0  0  0
  -47.2627   -3.8818   17.1393 S   0  0  0  0  0  0
  -45.3052   -0.7701   18.3098 N   0  0  0  0  0  0
  -48.8219   -3.0068   15.0378 N   0  0  0  0  0  0
  -45.9298    0.2194   19.1946 C   0  0  0  0  0  0
  -44.2601   -1.5608   18.9643 C   0  0  0  0  0  0
  -50.0628   -3.3343   15.7451 C   0  0  0  0  0  0
  -49.0421   -2.4175   13.7133 C   0  0  0  0  0  0
  -45.2750    1.5785   19.0554 C   0  0  0  0  0  0
  -42.8765   -1.0871   18.5707 C   0  0  0  0  0  0
  -50.4858   -2.2137   16.6716 C   0  0  0  0  0  0
  -49.1161   -3.4817   12.6387 C   0  0  0  0  0  0
  -45.6479   -0.9489   16.9542 C   0  0  0  0  0  0
  -47.5508   -3.2276   15.6071 C   0  0  0  0  0  0
  1  2  1  0  0  0
  1 15  1  0  0  0
  2 16  1  0  0  0
  3 15  2  0  0  0
  4 16  2  0  0  0
  5  7  1  0  0  0
  5  8  1  0  0  0
  5 15  1  0  0  0
  6  9  1  0  0  0
  6 10  1  0  0  0
  6 16  1  0  0  0
  7 11  1  0  0  0
  8 12  1  0  0  0
  9 13  1  0  0  0
 10 14  1  0  0  0
M  END
>  <CHROM.0>
63.97730043,-62.74418242,60.25871464

>  <CHROM.1>
-58.98000394,-25.70706283,-29.29594973,94.78333993,-102.77193335,-94.51801621
-89.88222235,-46.69987798,-1.91154748,16.40267416,-0.82008477,0.10262022
-2.29123169

>  <HEADER>
                                                                          

>  <MASTER>
        0    0    0    0    0    0    0    0   36    0   36    0          

>  <Name>
Disulfiram.pdb

>  <RI>
-2.6e+08

>  <Rbt.Current_Directory>
/root/miniconda3/envs/rdock/share/rxdock-2013.1.1_148c5bd1-0/data/ligands/prepped_ligands/Disulfiram

>  <Rbt.Executable>
rbdock/0.1.0

>  <Rbt.Library>
librxdock.so/0.1.0

>  <Rbt.Parameter_File>
/root/miniconda3/envs/rdock/share/rxdock-2013.1.1_148c5bd1-0/data/scripts/dock.prm

>  <Rbt.Receptor>
def.prm

>  <SCORE>
-10.6284

>  <SCORE.INTER>
-5.85634

>  <SCORE.INTER.CONST>
1

>  <SCORE.INTER.POLAR>
-0.213273

>  <SCORE.INTER.REPUL>
0

>  <SCORE.INTER.ROT>
7

>  <SCORE.INTER.VDW>
-17.5312

>  <SCORE.INTER.norm>
-0.366021

>  <SCORE.INTRA>
-3.74443

>  <SCORE.INTRA.DIHEDRAL>
-9.1685

>  <SCORE.INTRA.DIHEDRAL.0>
20.6363

>  <SCORE.INTRA.POLAR>
0

>  <SCORE.INTRA.POLAR.0>
0

>  <SCORE.INTRA.REPUL>
0

>  <SCORE.INTRA.REPUL.0>
0

>  <SCORE.INTRA.VDW>
0.839819

>  <SCORE.INTRA.VDW.0>
-2.69438

>  <SCORE.INTRA.norm>
-0.234027

>  <SCORE.RESTR>
0

>  <SCORE.RESTR.CAVITY>
0

>  <SCORE.RESTR.norm>
0

>  <SCORE.SYSTEM>
-1.02767

>  <SCORE.SYSTEM.CONST>
0

>  <SCORE.SYSTEM.DIHEDRAL>
0.0732232

>  <SCORE.SYSTEM.POLAR>
-0.00167934

>  <SCORE.SYSTEM.VDW>
-1.05857

>  <SCORE.SYSTEM.norm>
-0.0642294

>  <SCORE.heavy>
16

>  <SCORE.norm>
-0.664278

>  <TITLE>
    Disulfiram                                                            

$$$$
Disulfiram.pdb
  RxDock  02242110563D
librxdock.so/0.1.0
 16 15  0  0  0  0  0  0  0  0999 V2000
  -49.5807   -4.1427   17.2040 S   0  0  0  0  0  0
  -48.5875   -3.4748   15.5249 S   0  0  0  0  0  0
  -50.8546   -5.5423   14.9074 S   0  0  0  0  0  0
  -46.0559   -3.0524   17.0309 S   0  0  0  0  0  0
  -52.1333   -5.0602   17.3041 N   0  0  0  0  0  0
  -47.6186   -0.9953   16.0621 N   0  0  0  0  0  0
  -53.3800   -5.7168   16.8956 C   0  0  0  0  0  0
  -52.1842   -4.5019   18.6574 C   0  0  0  0  0  0
  -46.6961    0.0235   16.5702 C   0  0  0  0  0  0
  -48.7719   -0.4363   15.3495 C   0  0  0  0  0  0
  -54.1839   -4.8427   15.9549 C   0  0  0  0  0  0
  -52.4709   -3.0149   18.6346 C   0  0  0  0  0  0
  -47.1227    0.5286   17.9326 C   0  0  0  0  0  0
  -48.5055   -0.3284   13.8629 C   0  0  0  0  0  0
  -50.9912   -4.9493   16.4855 C   0  0  0  0  0  0
  -47.3859   -2.3751   16.2366 C   0  0  0  0  0  0
  1  2  1  0  0  0
  1 15  1  0  0  0
  2 16  1  0  0  0
  3 15  2  0  0  0
  4 16  2  0  0  0
  5  7  1  0  0  0
  5  8  1  0  0  0
  5 15  1  0  0  0
  6  9  1  0  0  0
  6 10  1  0  0  0
  6 16  1  0  0  0
  7 11  1  0  0  0
  8 12  1  0  0  0
  9 13  1  0  0  0
 10 14  1  0  0  0
M  END
>  <CHROM.0>
62.86697890,-62.61856894,-63.23727626

>  <CHROM.1>
168.13367418,25.46618726,74.70751415,102.83264490,-98.63825796,86.13200065
92.30399205,-49.55505235,-3.22675674,16.45112207,-2.69639591,0.46776358,0.66148857

>  <HEADER>
                                                                          

>  <MASTER>
        0    0    0    0    0    0    0    0   36    0   36    0          

>  <Name>
Disulfiram.pdb

>  <RI>
-2.6e+08

>  <Rbt.Current_Directory>
/root/miniconda3/envs/rdock/share/rxdock-2013.1.1_148c5bd1-0/data/ligands/prepped_ligands/Disulfiram

>  <Rbt.Executable>
rbdock/0.1.0

>  <Rbt.Library>
librxdock.so/0.1.0

>  <Rbt.Parameter_File>
/root/miniconda3/envs/rdock/share/rxdock-2013.1.1_148c5bd1-0/data/scripts/dock.prm

>  <Rbt.Receptor>
def.prm

>  <SCORE>
-5.55396

>  <SCORE.INTER>
-3.4239

>  <SCORE.INTER.CONST>
1

>  <SCORE.INTER.POLAR>
-0.317951

>  <SCORE.INTER.REPUL>
0

>  <SCORE.INTER.ROT>
7

>  <SCORE.INTER.VDW>
-14.7429

>  <SCORE.INTER.norm>
-0.213994

>  <SCORE.INTRA>
-1.08182

>  <SCORE.INTRA.DIHEDRAL>
-5.794

>  <SCORE.INTRA.DIHEDRAL.0>
20.6363

>  <SCORE.INTRA.POLAR>
0

>  <SCORE.INTRA.POLAR.0>
0

>  <SCORE.INTRA.REPUL>
0

>  <SCORE.INTRA.REPUL.0>
0

>  <SCORE.INTRA.VDW>
1.81518

>  <SCORE.INTRA.VDW.0>
-2.69438

>  <SCORE.INTRA.norm>
-0.0676139

>  <SCORE.RESTR>
0

>  <SCORE.RESTR.CAVITY>
0

>  <SCORE.RESTR.norm>
0

>  <SCORE.SYSTEM>
-1.04823

>  <SCORE.SYSTEM.CONST>
0

>  <SCORE.SYSTEM.DIHEDRAL>
0.0805388

>  <SCORE.SYSTEM.VDW>
-1.0885

>  <SCORE.SYSTEM.norm>
-0.0655144

>  <SCORE.heavy>
16

>  <SCORE.norm>
-0.347122

>  <TITLE>
    Disulfiram                                                            

$$$$
Disulfiram.pdb
  RxDock  02242110563D
librxdock.so/0.1.0
 16 15  0  0  0  0  0  0  0  0999 V2000
  -47.7774   -2.5803   14.3088 S   0  0  0  0  0  0
  -47.0805   -0.7377   14.9181 S   0  0  0  0  0  0
  -50.1498   -0.8206   13.9461 S   0  0  0  0  0  0
  -44.4861   -2.1290   14.4833 S   0  0  0  0  0  0
  -50.3072   -3.4483   14.7723 N   0  0  0  0  0  0
  -45.0379   -0.5832   16.7011 N   0  0  0  0  0  0
  -51.7715   -3.4462   14.8615 C   0  0  0  0  0  0
  -49.7012   -4.7263   15.1533 C   0  0  0  0  0  0
  -43.7037   -0.8089   17.2634 C   0  0  0  0  0  0
  -45.8810    0.2865   17.5275 C   0  0  0  0  0  0
  -52.2433   -2.9591   16.2162 C   0  0  0  0  0  0
  -49.1506   -4.6818   16.5635 C   0  0  0  0  0  0
  -43.5376   -2.2355   17.7433 C   0  0  0  0  0  0
  -46.8643   -0.5165   18.3526 C   0  0  0  0  0  0
  -49.5358   -2.3362   14.3785 C   0  0  0  0  0  0
  -45.4405   -1.1432   15.4711 C   0  0  0  0  0  0
  1  2  1  0  0  0
  1 15  1  0  0  0
  2 16  1  0  0  0
  3 15  2  0  0  0
  4 16  2  0  0  0
  5  7  1  0  0  0
  5  8  1  0  0  0
  5 15  1  0  0  0
  6  9  1  0  0  0
  6 10  1  0  0  0
  6 16  1  0  0  0
  7 11  1  0  0  0
  8 12  1  0  0  0
  9 13  1  0  0  0
 10 14  1  0  0  0
M  END
>  <CHROM.0>
178.33029740,-62.27692907,56.82008727

>  <CHROM.1>
158.34595702,36.18621577,46.25707890,92.08682037,-100.81297140,110.37974884
-100.44153564,-47.60167662,-1.94730735,15.48747288,-3.02308228,0.35384603
1.95832245

>  <HEADER>
                                                                          

>  <MASTER>
        0    0    0    0    0    0    0    0   36    0   36    0          

>  <Name>
Disulfiram.pdb

>  <RI>
-2.6e+08

>  <Rbt.Current_Directory>
/root/miniconda3/envs/rdock/share/rxdock-2013.1.1_148c5bd1-0/data/ligands/prepped_ligands/Disulfiram

>  <Rbt.Executable>
rbdock/0.1.0

>  <Rbt.Library>
librxdock.so/0.1.0

>  <Rbt.Parameter_File>
/root/miniconda3/envs/rdock/share/rxdock-2013.1.1_148c5bd1-0/data/scripts/dock.prm

>  <Rbt.Receptor>
def.prm

>  <SCORE>
-13.0307

>  <SCORE.INTER>
-11.0271

>  <SCORE.INTER.CONST>
1

>  <SCORE.INTER.POLAR>
-0.824621

>  <SCORE.INTER.REPUL>
0

>  <SCORE.INTER.ROT>
7

>  <SCORE.INTER.VDW>
-20.6234

>  <SCORE.INTER.norm>
-0.689195

>  <SCORE.INTRA>
-0.957369

>  <SCORE.INTRA.DIHEDRAL>
-5.31696

>  <SCORE.INTRA.DIHEDRAL.0>
20.6363

>  <SCORE.INTRA.POLAR>
0

>  <SCORE.INTRA.POLAR.0>
0

>  <SCORE.INTRA.REPUL>
0

>  <SCORE.INTRA.REPUL.0>
0

>  <SCORE.INTRA.VDW>
1.70111

>  <SCORE.INTRA.VDW.0>
-2.69438

>  <SCORE.INTRA.norm>
-0.0598356

>  <SCORE.RESTR>
0

>  <SCORE.RESTR.CAVITY>
0

>  <SCORE.RESTR.norm>
0

>  <SCORE.SYSTEM>
-1.04623

>  <SCORE.SYSTEM.CONST>
0

>  <SCORE.SYSTEM.DIHEDRAL>
0.0613339

>  <SCORE.SYSTEM.VDW>
-1.0769

>  <SCORE.SYSTEM.norm>
-0.0653894

>  <SCORE.heavy>
16

>  <SCORE.norm>
-0.81442

>  <TITLE>
    Disulfiram                                                            

$$$$
Disulfiram.pdb
  RxDock  02242110563D
librxdock.so/0.1.0
 16 15  0  0  0  0  0  0  0  0999 V2000
  -48.8780   -3.1571   18.1303 S   0  0  0  0  0  0
  -47.1550   -2.9721   17.0127 S   0  0  0  0  0  0
  -48.5424   -5.7998   16.8038 S   0  0  0  0  0  0
  -47.3820   -0.5874   18.7783 S   0  0  0  0  0  0
  -50.9910   -4.7461   17.5151 N   0  0  0  0  0  0
  -45.1486   -1.1589   17.2624 N   0  0  0  0  0  0
  -51.7516   -5.9030   17.0303 C   0  0  0  0  0  0
  -51.8340   -3.6845   18.0701 C   0  0  0  0  0  0
  -44.4387    0.0243   17.7554 C   0  0  0  0  0  0
  -44.3605   -1.9649   16.3246 C   0  0  0  0  0  0
  -51.7768   -7.0184   18.0552 C   0  0  0  0  0  0
  -52.1274   -2.6127   17.0410 C   0  0  0  0  0  0
  -43.7177   -0.2627   19.0558 C   0  0  0  0  0  0
  -44.6242   -1.5608   14.8894 C   0  0  0  0  0  0
  -49.5873   -4.6362   17.4479 C   0  0  0  0  0  0
  -46.4560   -1.4808   17.6815 C   0  0  0  0  0  0
  1  2  1  0  0  0
  1 15  1  0  0  0
  2 16  1  0  0  0
  3 15  2  0  0  0
  4 16  2  0  0  0
  5  7  1  0  0  0
  5  8  1  0  0  0
  5 15  1  0  0  0
  6  9  1  0  0  0
  6 10  1  0  0  0
  6 16  1  0  0  0
  7 11  1  0  0  0
  8 12  1  0  0  0
  9 13  1  0  0  0
 10 14  1  0  0  0
M  END
>  <CHROM.0>
172.44752779,-179.17761876,175.77181649

>  <CHROM.1>
179.30998568,28.98735272,-7.61077197,-98.21952435,-95.84390905,-92.89178546
-92.81474992,-48.03442464,-3.00609704,17.48576343,2.59671430,-0.30673328
-2.67538040

>  <HEADER>
                                                                          

>  <MASTER>
        0    0    0    0    0    0    0    0   36    0   36    0          

>  <Name>
Disulfiram.pdb

>  <RI>
-2.6e+08

>  <Rbt.Current_Directory>
/root/miniconda3/envs/rdock/share/rxdock-2013.1.1_148c5bd1-0/data/ligands/prepped_ligands/Disulfiram

>  <Rbt.Executable>
rbdock/0.1.0

>  <Rbt.Library>
librxdock.so/0.1.0

>  <Rbt.Parameter_File>
/root/miniconda3/envs/rdock/share/rxdock-2013.1.1_148c5bd1-0/data/scripts/dock.prm

>  <Rbt.Receptor>
def.prm

>  <SCORE>
-6.57896

>  <SCORE.INTER>
-3.1942

>  <SCORE.INTER.CONST>
1

>  <SCORE.INTER.POLAR>
0

>  <SCORE.INTER.REPUL>
0

>  <SCORE.INTER.ROT>
7

>  <SCORE.INTER.VDW>
-15.5942

>  <SCORE.INTER.norm>
-0.199638

>  <SCORE.INTRA>
-2.41601

>  <SCORE.INTRA.DIHEDRAL>
-10.0464

>  <SCORE.INTRA.DIHEDRAL.0>
20.6363

>  <SCORE.INTRA.POLAR>
0

>  <SCORE.INTRA.POLAR.0>
0

>  <SCORE.INTRA.REPUL>
0

>  <SCORE.INTRA.REPUL.0>
0

>  <SCORE.INTRA.VDW>
2.60718

>  <SCORE.INTRA.VDW.0>
-2.69438

>  <SCORE.INTRA.norm>
-0.151

>  <SCORE.RESTR>
0

>  <SCORE.RESTR.CAVITY>
0

>  <SCORE.RESTR.norm>
0

>  <SCORE.SYSTEM>
-0.968751

>  <SCORE.SYSTEM.CONST>
0

>  <SCORE.SYSTEM.DIHEDRAL>
0.195234

>  <SCORE.SYSTEM.VDW>
-1.06637

>  <SCORE.SYSTEM.norm>
-0.060547

>  <SCORE.heavy>
16

>  <SCORE.norm>
-0.411185

>  <TITLE>
    Disulfiram                                                            

$$$$
Disulfiram.pdb
  RxDock  02242110563D
librxdock.so/0.1.0
 16 15  0  0  0  0  0  0  0  0999 V2000
  -44.3698   -2.0409   16.3427 S   0  0  0  0  0  0
  -45.6368   -2.3389   14.7434 S   0  0  0  0  0  0
  -46.4783    0.0513   16.5251 S   0  0  0  0  0  0
  -46.9423   -3.6309   17.0847 S   0  0  0  0  0  0
  -44.9541   -0.7746   18.6714 N   0  0  0  0  0  0
  -48.3210   -2.7322   14.8702 N   0  0  0  0  0  0
  -45.6162    0.1216   19.6256 C   0  0  0  0  0  0
  -43.8882   -1.5809   19.2712 C   0  0  0  0  0  0
  -49.6105   -3.1393   15.4347 C   0  0  0  0  0  0
  -48.4337   -2.0970   13.5534 C   0  0  0  0  0  0
  -46.8961   -0.4871   20.1610 C   0  0  0  0  0  0
  -42.5394   -0.9046   19.1403 C   0  0  0  0  0  0
  -49.9088   -4.5952   15.1440 C   0  0  0  0  0  0
  -48.5292   -0.5904   13.6713 C   0  0  0  0  0  0
  -45.2819   -0.8566   17.3030 C   0  0  0  0  0  0
  -47.1046   -2.9249   15.5571 C   0  0  0  0  0  0
  1  2  1  0  0  0
  1 15  1  0  0  0
  2 16  1  0  0  0
  3 15  2  0  0  0
  4 16  2  0  0  0
  5  7  1  0  0  0
  5  8  1  0  0  0
  5 15  1  0  0  0
  6  9  1  0  0  0
  6 10  1  0  0  0
  6 16  1  0  0  0
  7 11  1  0  0  0
  8 12  1  0  0  0
  9 13  1  0  0  0
 10 14  1  0  0  0
M  END
>  <CHROM.0>
178.40415333,-60.83871379,-178.78423872

>  <CHROM.1>
-59.19862484,-20.61425080,-23.21995005,-96.94404097,-92.63344330,95.57222598
93.02688909,-46.37822877,-1.82961414,16.57540417,-0.80812884,-0.29134527
-1.75893924

>  <HEADER>
                                                                          

>  <MASTER>
        0    0    0    0    0    0    0    0   36    0   36    0          

>  <Name>
Disulfiram.pdb

>  <RI>
-2.6e+08

>  <Rbt.Current_Directory>
/root/miniconda3/envs/rdock/share/rxdock-2013.1.1_148c5bd1-0/data/ligands/prepped_ligands/Disulfiram

>  <Rbt.Executable>
rbdock/0.1.0

>  <Rbt.Library>
librxdock.so/0.1.0

>  <Rbt.Parameter_File>
/root/miniconda3/envs/rdock/share/rxdock-2013.1.1_148c5bd1-0/data/scripts/dock.prm

>  <Rbt.Receptor>
def.prm

>  <SCORE>
-11.9664

>  <SCORE.INTER>
-6.84464

>  <SCORE.INTER.CONST>
1

>  <SCORE.INTER.POLAR>
-0.260862

>  <SCORE.INTER.REPUL>
0

>  <SCORE.INTER.ROT>
7

>  <SCORE.INTER.VDW>
-18.3577

>  <SCORE.INTER.norm>
-0.42779

>  <SCORE.INTRA>
-4.03623

>  <SCORE.INTRA.DIHEDRAL>
-9.85381

>  <SCORE.INTRA.DIHEDRAL.0>
20.6363

>  <SCORE.INTRA.POLAR>
0

>  <SCORE.INTRA.POLAR.0>
0

>  <SCORE.INTRA.REPUL>
0

>  <SCORE.INTRA.REPUL.0>
0

>  <SCORE.INTRA.VDW>
0.890675

>  <SCORE.INTRA.VDW.0>
-2.69438

>  <SCORE.INTRA.norm>
-0.252264

>  <SCORE.RESTR>
0

>  <SCORE.RESTR.CAVITY>
0

>  <SCORE.RESTR.norm>
0

>  <SCORE.SYSTEM>
-1.08554

>  <SCORE.SYSTEM.CONST>
0

>  <SCORE.SYSTEM.DIHEDRAL>
0.0137845

>  <SCORE.SYSTEM.POLAR>
-0.0049042

>  <SCORE.SYSTEM.VDW>
-1.07576

>  <SCORE.SYSTEM.norm>
-0.0678463

>  <SCORE.heavy>
16

>  <SCORE.norm>
-0.7479

>  <TITLE>
    Disulfiram                                                            

$$$$
Disulfiram.pdb
  RxDock  02242110563D
librxdock.so/0.1.0
 16 15  0  0  0  0  0  0  0  0999 V2000
  -49.6551   -5.0453   16.1451 S   0  0  0  0  0  0
  -49.0504   -3.5603   14.8484 S   0  0  0  0  0  0
  -49.6198   -4.1438   18.9810 S   0  0  0  0  0  0
  -46.8924   -3.3273   16.8842 S   0  0  0  0  0  0
  -51.5138   -3.3377   17.1438 N   0  0  0  0  0  0
  -48.2437   -1.1624   15.8357 N   0  0  0  0  0  0
  -52.2232   -2.4722   18.0924 C   0  0  0  0  0  0
  -52.1199   -3.3623   15.8106 C   0  0  0  0  0  0
  -47.4591   -0.2132   16.6298 C   0  0  0  0  0  0
  -49.2301   -0.5187   14.9623 C   0  0  0  0  0  0
  -51.6680   -1.0627   18.0783 C   0  0  0  0  0  0
  -53.0954   -4.5117   15.6648 C   0  0  0  0  0  0
  -48.0870    0.0274   17.9866 C   0  0  0  0  0  0
  -48.6750   -0.2926   13.5718 C   0  0  0  0  0  0
  -50.3693   -4.0951   17.4655 C   0  0  0  0  0  0
  -48.0360   -2.5553   15.9072 C   0  0  0  0  0  0
  1  2  1  0  0  0
  1 15  1  0  0  0
  2 16  1  0  0  0
  3 15  2  0  0  0
  4 16  2  0  0  0
  5  7  1  0  0  0
  5  8  1  0  0  0
  5 15  1  0  0  0
  6  9  1  0  0  0
  6 10  1  0  0  0
  6 16  1  0  0  0
  7 11  1  0  0  0
  8 12  1  0  0  0
  9 13  1  0  0  0
 10 14  1  0  0  0
M  END
>  <CHROM.0>
71.07266303,67.37858495,-62.14513173

>  <CHROM.1>
54.63137352,-114.61316218,47.08315923,-90.88279035,-93.51361283,92.61278953
93.95178411,-49.53307206,-2.82686923,16.54767456,-2.43101004,-0.09030569
-0.50652182

>  <HEADER>
                                                                          

>  <MASTER>
        0    0    0    0    0    0    0    0   36    0   36    0          

>  <Name>
Disulfiram.pdb

>  <RI>
-2.6e+08

>  <Rbt.Current_Directory>
/root/miniconda3/envs/rdock/share/rxdock-2013.1.1_148c5bd1-0/data/ligands/prepped_ligands/Disulfiram

>  <Rbt.Executable>
rbdock/0.1.0

>  <Rbt.Library>
librxdock.so/0.1.0

>  <Rbt.Parameter_File>
/root/miniconda3/envs/rdock/share/rxdock-2013.1.1_148c5bd1-0/data/scripts/dock.prm

>  <Rbt.Receptor>
def.prm

>  <SCORE>
-7.85241

>  <SCORE.INTER>
-3.45782

>  <SCORE.INTER.CONST>
1

>  <SCORE.INTER.POLAR>
-0.394059

>  <SCORE.INTER.REPUL>
0

>  <SCORE.INTER.ROT>
7

>  <SCORE.INTER.VDW>
-14.518

>  <SCORE.INTER.norm>
-0.216114

>  <SCORE.INTRA>
-3.62577

>  <SCORE.INTRA.DIHEDRAL>
-5.50224

>  <SCORE.INTRA.DIHEDRAL.0>
20.6363

>  <SCORE.INTRA.POLAR>
0

>  <SCORE.INTRA.POLAR.0>
0

>  <SCORE.INTRA.REPUL>
0

>  <SCORE.INTRA.REPUL.0>
0

>  <SCORE.INTRA.VDW>
-0.874648

>  <SCORE.INTRA.VDW.0>
-2.69438

>  <SCORE.INTRA.norm>
-0.226611

>  <SCORE.RESTR>
0

>  <SCORE.RESTR.CAVITY>
0

>  <SCORE.RESTR.norm>
0

>  <SCORE.SYSTEM>
-0.768817

>  <SCORE.SYSTEM.CONST>
0

>  <SCORE.SYSTEM.DIHEDRAL>
0.565017

>  <SCORE.SYSTEM.VDW>
-1.05133

>  <SCORE.SYSTEM.norm>
-0.0480511

>  <SCORE.heavy>
16

>  <SCORE.norm>
-0.490775

>  <TITLE>
    Disulfiram                                                            

$$$$
Disulfiram.pdb
  RxDock  02242110563D
librxdock.so/0.1.0
 16 15  0  0  0  0  0  0  0  0999 V2000
  -49.0421   -3.7652   18.0964 S   0  0  0  0  0  0
  -47.9380   -2.9164   16.5757 S   0  0  0  0  0  0
  -49.8310   -5.2321   15.6302 S   0  0  0  0  0  0
  -47.7284   -1.1760   18.9804 S   0  0  0  0  0  0
  -49.9304   -6.3293   18.1596 N   0  0  0  0  0  0
  -46.4047   -0.6751   16.6119 N   0  0  0  0  0  0
  -50.4149   -7.6331   17.6931 C   0  0  0  0  0  0
  -49.7724   -6.2519   19.6139 C   0  0  0  0  0  0
  -45.7683    0.5284   17.1537 C   0  0  0  0  0  0
  -46.0197   -0.9672   15.2275 C   0  0  0  0  0  0
  -49.2737   -8.6098   17.4956 C   0  0  0  0  0  0
  -50.9913   -5.6413   20.2736 C   0  0  0  0  0  0
  -44.5863    0.1824   18.0349 C   0  0  0  0  0  0
  -44.8772   -1.9591   15.1676 C   0  0  0  0  0  0
  -49.6543   -5.2372   17.3123 C   0  0  0  0  0  0
  -47.2830   -1.4707   17.3762 C   0  0  0  0  0  0
  1  2  1  0  0  0
  1 15  1  0  0  0
  2 16  1  0  0  0
  3 15  2  0  0  0
  4 16  2  0  0  0
  5  7  1  0  0  0
  5  8  1  0  0  0
  5 15  1  0  0  0
  6  9  1  0  0  0
  6 10  1  0  0  0
  6 16  1  0  0  0
  7 11  1  0  0  0
  8 12  1  0  0  0
  9 13  1  0  0  0
 10 14  1  0  0  0
M  END
>  <CHROM.0>
-56.82293883,-60.14758078,56.81506054

>  <CHROM.1>
-178.26293368,-26.43024306,-1.78910327,-85.73688378,-95.71144832,-100.31953619
95.32024979,-48.21201751,-3.50807909,17.43354949,2.80405619,-0.93772840,-2.14457916

>  <HEADER>
                                                                          

>  <MASTER>
        0    0    0    0    0    0    0    0   36    0   36    0          

>  <Name>
Disulfiram.pdb

>  <RI>
-2.6e+08

>  <Rbt.Current_Directory>
/root/miniconda3/envs/rdock/share/rxdock-2013.1.1_148c5bd1-0/data/ligands/prepped_ligands/Disulfiram

>  <Rbt.Executable>
rbdock/0.1.0

>  <Rbt.Library>
librxdock.so/0.1.0

>  <Rbt.Parameter_File>
/root/miniconda3/envs/rdock/share/rxdock-2013.1.1_148c5bd1-0/data/scripts/dock.prm

>  <Rbt.Receptor>
def.prm

>  <SCORE>
-5.33207

>  <SCORE.INTER>
-2.26257

>  <SCORE.INTER.CONST>
1

>  <SCORE.INTER.POLAR>
-0.0503302

>  <SCORE.INTER.REPUL>
0

>  <SCORE.INTER.ROT>
7

>  <SCORE.INTER.VDW>
-14.4914

>  <SCORE.INTER.norm>
-0.141411

>  <SCORE.INTRA>
-2.03141

>  <SCORE.INTRA.DIHEDRAL>
-10.0824

>  <SCORE.INTRA.DIHEDRAL.0>
20.6363

>  <SCORE.INTRA.POLAR>
0

>  <SCORE.INTRA.POLAR.0>
0

>  <SCORE.INTRA.REPUL>
0

>  <SCORE.INTRA.REPUL.0>
0

>  <SCORE.INTRA.VDW>
3.0098

>  <SCORE.INTRA.VDW.0>
-2.69438

>  <SCORE.INTRA.norm>
-0.126963

>  <SCORE.RESTR>
0

>  <SCORE.RESTR.CAVITY>
0

>  <SCORE.RESTR.norm>
0

>  <SCORE.SYSTEM>
-1.0381

>  <SCORE.SYSTEM.CONST>
0

>  <SCORE.SYSTEM.DIHEDRAL>
0.0503727

>  <SCORE.SYSTEM.VDW>
-1.06328

>  <SCORE.SYSTEM.norm>
-0.0648809

>  <SCORE.heavy>
16

>  <SCORE.norm>
-0.333254

>  <TITLE>
    Disulfiram                                                            

$$$$
Disulfiram.pdb
  RxDock  02242110563D
librxdock.so/0.1.0
 16 15  0  0  0  0  0  0  0  0999 V2000
  -48.1219   -0.5765   17.8088 S   0  0  0  0  0  0
  -46.5467    0.2090   16.7345 S   0  0  0  0  0  0
  -47.1431   -3.2804   17.0428 S   0  0  0  0  0  0
  -44.5405   -1.8654   16.0081 S   0  0  0  0  0  0
  -49.6237   -2.2969   16.3418 N   0  0  0  0  0  0
  -44.8076   -0.8215   18.5481 N   0  0  0  0  0  0
  -50.0271   -3.5162   15.6328 C   0  0  0  0  0  0
  -50.6394   -1.2418   16.3127 C   0  0  0  0  0  0
  -43.7075   -1.6405   19.0641 C   0  0  0  0  0  0
  -45.4031    0.0602   19.5571 C   0  0  0  0  0  0
  -49.5755   -3.4913   14.1869 C   0  0  0  0  0  0
  -51.4723   -1.2372   17.5776 C   0  0  0  0  0  0
  -42.3673   -0.9696   18.8478 C   0  0  0  0  0  0
  -46.3251   -0.7027   20.4848 C   0  0  0  0  0  0
  -48.3788   -2.1271   16.9808 C   0  0  0  0  0  0
  -45.2207   -0.8791   17.2011 C   0  0  0  0  0  0
  1  2  1  0  0  0
  1 15  1  0  0  0
  2 16  1  0  0  0
  3 15  2  0  0  0
  4 16  2  0  0  0
  5  7  1  0  0  0
  5  8  1  0  0  0
  5 15  1  0  0  0
  6  9  1  0  0  0
  6 10  1  0  0  0
  6 16  1  0  0  0
  7 11  1  0  0  0
  8 12  1  0  0  0
  9 13  1  0  0  0
 10 14  1  0  0  0
M  END
>  <CHROM.0>
-175.44823512,61.91629564,-179.82709022

>  <CHROM.1>
-68.99831709,64.34949368,114.50808562,92.02783461,97.32811035,-93.04144717
-77.40613156,-46.99831410,-1.48955452,17.28398386,2.71927603,0.04998185,-2.22813919

>  <HEADER>
                                                                          

>  <MASTER>
        0    0    0    0    0    0    0    0   36    0   36    0          

>  <Name>
Disulfiram.pdb

>  <RI>
-2.6e+08

>  <Rbt.Current_Directory>
/root/miniconda3/envs/rdock/share/rxdock-2013.1.1_148c5bd1-0/data/ligands/prepped_ligands/Disulfiram

>  <Rbt.Executable>
rbdock/0.1.0

>  <Rbt.Library>
librxdock.so/0.1.0

>  <Rbt.Parameter_File>
/root/miniconda3/envs/rdock/share/rxdock-2013.1.1_148c5bd1-0/data/scripts/dock.prm

>  <Rbt.Receptor>
def.prm

>  <SCORE>
-4.13788

>  <SCORE.INTER>
-2.56741

>  <SCORE.INTER.CONST>
1

>  <SCORE.INTER.POLAR>
-0.233019

>  <SCORE.INTER.REPUL>
0

>  <SCORE.INTER.ROT>
7

>  <SCORE.INTER.VDW>
-14.1751

>  <SCORE.INTER.norm>
-0.160463

>  <SCORE.INTRA>
-0.566535

>  <SCORE.INTRA.DIHEDRAL>
-4.02295

>  <SCORE.INTRA.DIHEDRAL.0>
20.6363

>  <SCORE.INTRA.POLAR>
0

>  <SCORE.INTRA.POLAR.0>
0

>  <SCORE.INTRA.REPUL>
0

>  <SCORE.INTRA.REPUL.0>
0

>  <SCORE.INTRA.VDW>
1.44494

>  <SCORE.INTRA.VDW.0>
-2.69438

>  <SCORE.INTRA.norm>
-0.0354085

>  <SCORE.RESTR>
0

>  <SCORE.RESTR.CAVITY>
0

>  <SCORE.RESTR.norm>
0

>  <SCORE.SYSTEM>
-1.00393

>  <SCORE.SYSTEM.CONST>
0

>  <SCORE.SYSTEM.DIHEDRAL>
0.0657844

>  <SCORE.SYSTEM.POLAR>
-0.00242694

>  <SCORE.SYSTEM.VDW>
-1.02857

>  <SCORE.SYSTEM.norm>
-0.0627459

>  <SCORE.heavy>
16

>  <SCORE.norm>
-0.258617

>  <TITLE>
    Disulfiram                                                            

$$$$
