Disulfiram.pdb
  RxDock  02242112563D
librxdock.so/0.1.0
 16 15  0  0  0  0  0  0  0  0999 V2000
  -47.9137   -2.3928   16.9303 S   0  0  0  0  0  0
  -47.0390   -0.5344   17.1126 S   0  0  0  0  0  0
  -49.8671   -0.4158   15.8663 S   0  0  0  0  0  0
  -44.8477   -2.5429   17.2534 S   0  0  0  0  0  0
  -50.5570   -2.9587   16.6846 N   0  0  0  0  0  0
  -44.5954    0.0580   18.1390 N   0  0  0  0  0  0
  -51.9777   -2.7961   16.3571 C   0  0  0  0  0  0
  -50.2360   -4.2692   17.2551 C   0  0  0  0  0  0
  -43.1994   -0.1494   18.5332 C   0  0  0  0  0  0
  -45.0741    1.4230   18.3795 C   0  0  0  0  0  0
  -52.2431   -3.0699   14.8909 C   0  0  0  0  0  0
  -49.6834   -5.2116   16.2062 C   0  0  0  0  0  0
  -43.0957   -1.0022   19.7803 C   0  0  0  0  0  0
  -45.9178    1.5012   19.6343 C   0  0  0  0  0  0
  -49.5808   -1.9598   16.4947 C   0  0  0  0  0  0
  -45.3756   -0.9674   17.5660 C   0  0  0  0  0  0
  1  2  1  0  0  0
  1 15  1  0  0  0
  2 16  1  0  0  0
  3 15  2  0  0  0
  4 16  2  0  0  0
  5  7  1  0  0  0
  5  8  1  0  0  0
  5 15  1  0  0  0
  6  9  1  0  0  0
  6 10  1  0  0  0
  6 16  1  0  0  0
  7 11  1  0  0  0
  8 12  1  0  0  0
  9 13  1  0  0  0
 10 14  1  0  0  0
M  END
>  <CHROM.0>
-60.40706063,60.29873587,-59.79501048

>  <CHROM.1>
179.40281764,19.78773513,18.72186980,-97.26393598,98.19329983,108.12508197
-101.44503122,-47.54020336,-1.56056109,17.19761591,-2.73119678,-0.32389457
0.10754723

>  <HEADER>
                                                                          

>  <MASTER>
        0    0    0    0    0    0    0    0   36    0   36    0          

>  <Name>
Disulfiram.pdb

>  <RI>
-2.25844e+08

>  <Rbt.Current_Directory>
/root/miniconda3/envs/rdock/share/rxdock-2013.1.1_148c5bd1-0/data/ligands/prepped_ligands/Disulfiram

>  <Rbt.Executable>
rbdock/0.1.0

>  <Rbt.Library>
librxdock.so/0.1.0

>  <Rbt.Parameter_File>
/root/miniconda3/envs/rdock/share/rxdock-2013.1.1_148c5bd1-0/data/scripts/dock.prm

>  <Rbt.Receptor>
def.prm

>  <SCORE>
-6.31728

>  <SCORE.INTER>
-2.94273

>  <SCORE.INTER.CONST>
1

>  <SCORE.INTER.POLAR>
-0.335874

>  <SCORE.INTER.REPUL>
0

>  <SCORE.INTER.ROT>
7

>  <SCORE.INTER.VDW>
-14.2008

>  <SCORE.INTER.norm>
-0.183921

>  <SCORE.INTRA>
-2.38339

>  <SCORE.INTRA.DIHEDRAL>
-10.393

>  <SCORE.INTRA.DIHEDRAL.0>
20.6363

>  <SCORE.INTRA.POLAR>
0

>  <SCORE.INTRA.POLAR.0>
0

>  <SCORE.INTRA.REPUL>
0

>  <SCORE.INTRA.REPUL.0>
0

>  <SCORE.INTRA.VDW>
2.81312

>  <SCORE.INTRA.VDW.0>
-2.69438

>  <SCORE.INTRA.norm>
-0.148962

>  <SCORE.RESTR>
0

>  <SCORE.RESTR.CAVITY>
0

>  <SCORE.RESTR.norm>
0

>  <SCORE.SYSTEM>
-0.99116

>  <SCORE.SYSTEM.CONST>
0

>  <SCORE.SYSTEM.DIHEDRAL>
0.00128758

>  <SCORE.SYSTEM.POLAR>
-0.00130097

>  <SCORE.SYSTEM.VDW>
-0.987381

>  <SCORE.SYSTEM.norm>
-0.0619475

>  <SCORE.heavy>
16

>  <SCORE.norm>
-0.39483

>  <TITLE>
    Disulfiram                                                            

$$$$
Disulfiram.pdb
  RxDock  02242112563D
librxdock.so/0.1.0
 16 15  0  0  0  0  0  0  0  0999 V2000
  -48.6187   -2.4330   18.0017 S   0  0  0  0  0  0
  -46.9521   -2.3719   16.7890 S   0  0  0  0  0  0
  -49.1169   -4.7279   16.1738 S   0  0  0  0  0  0
  -46.5036   -0.5249   19.0787 S   0  0  0  0  0  0
  -51.0900   -3.0019   17.0338 N   0  0  0  0  0  0
  -44.5398   -1.2210   17.2700 N   0  0  0  0  0  0
  -52.1619   -3.6930   16.3088 C   0  0  0  0  0  0
  -51.5512   -1.8258   17.7753 C   0  0  0  0  0  0
  -43.5344   -0.4075   17.9590 C   0  0  0  0  0  0
  -44.0147   -1.9318   16.0999 C   0  0  0  0  0  0
  -52.1936   -3.2884   14.8492 C   0  0  0  0  0  0
  -51.9023   -2.1739   19.2069 C   0  0  0  0  0  0
  -42.8305   -1.1961   19.0433 C   0  0  0  0  0  0
  -44.4360   -1.2616   14.8092 C   0  0  0  0  0  0
  -49.7382   -3.4011   17.0190 C   0  0  0  0  0  0
  -45.8726   -1.3112   17.7215 C   0  0  0  0  0  0
  1  2  1  0  0  0
  1 15  1  0  0  0
  2 16  1  0  0  0
  3 15  2  0  0  0
  4 16  2  0  0  0
  5  7  1  0  0  0
  5  8  1  0  0  0
  5 15  1  0  0  0
  6  9  1  0  0  0
  6 10  1  0  0  0
  6 16  1  0  0  0
  7 11  1  0  0  0
  8 12  1  0  0  0
  9 13  1  0  0  0
 10 14  1  0  0  0
M  END
>  <CHROM.0>
-55.84195934,-63.49472614,-178.14355202

>  <CHROM.1>
176.29218158,39.93930977,-8.47813572,98.15043408,92.90973178,-90.42319281
-103.55908984,-47.81208334,-2.25109732,17.26738539,2.89225630,-0.20392494
-2.12337688

>  <HEADER>
                                                                          

>  <MASTER>
        0    0    0    0    0    0    0    0   36    0   36    0          

>  <Name>
Disulfiram.pdb

>  <RI>
-2.25844e+08

>  <Rbt.Current_Directory>
/root/miniconda3/envs/rdock/share/rxdock-2013.1.1_148c5bd1-0/data/ligands/prepped_ligands/Disulfiram

>  <Rbt.Executable>
rbdock/0.1.0

>  <Rbt.Library>
librxdock.so/0.1.0

>  <Rbt.Parameter_File>
/root/miniconda3/envs/rdock/share/rxdock-2013.1.1_148c5bd1-0/data/scripts/dock.prm

>  <Rbt.Receptor>
def.prm

>  <SCORE>
-6.38985

>  <SCORE.INTER>
-3.13486

>  <SCORE.INTER.CONST>
1

>  <SCORE.INTER.POLAR>
0

>  <SCORE.INTER.REPUL>
0

>  <SCORE.INTER.ROT>
7

>  <SCORE.INTER.VDW>
-15.5349

>  <SCORE.INTER.norm>
-0.195929

>  <SCORE.INTRA>
-2.17954

>  <SCORE.INTRA.DIHEDRAL>
-9.24229

>  <SCORE.INTRA.DIHEDRAL.0>
20.6363

>  <SCORE.INTRA.POLAR>
0

>  <SCORE.INTRA.POLAR.0>
0

>  <SCORE.INTRA.REPUL>
0

>  <SCORE.INTRA.REPUL.0>
0

>  <SCORE.INTRA.VDW>
2.4416

>  <SCORE.INTRA.VDW.0>
-2.69438

>  <SCORE.INTRA.norm>
-0.136221

>  <SCORE.RESTR>
0

>  <SCORE.RESTR.CAVITY>
0

>  <SCORE.RESTR.norm>
0

>  <SCORE.SYSTEM>
-1.07545

>  <SCORE.SYSTEM.CONST>
0

>  <SCORE.SYSTEM.DIHEDRAL>
0.106727

>  <SCORE.SYSTEM.POLAR>
-0.00632467

>  <SCORE.SYSTEM.VDW>
-1.10731

>  <SCORE.SYSTEM.norm>
-0.0672154

>  <SCORE.heavy>
16

>  <SCORE.norm>
-0.399366

>  <TITLE>
    Disulfiram                                                            

$$$$
Disulfiram.pdb
  RxDock  02242112563D
librxdock.so/0.1.0
 16 15  0  0  0  0  0  0  0  0999 V2000
  -47.6761   -1.3094   15.8665 S   0  0  0  0  0  0
  -49.0751   -2.2399   17.0620 S   0  0  0  0  0  0
  -46.7853   -0.9436   18.6824 S   0  0  0  0  0  0
  -50.7696   -1.6288   14.6933 S   0  0  0  0  0  0
  -45.1049   -0.7191   16.5056 N   0  0  0  0  0  0
  -50.7409   -4.0799   15.9598 N   0  0  0  0  0  0
  -43.9152   -0.4363   17.3160 C   0  0  0  0  0  0
  -44.8423   -0.7215   15.0646 C   0  0  0  0  0  0
  -51.7149   -4.6426   15.0206 C   0  0  0  0  0  0
  -50.2865   -5.0367   16.9737 C   0  0  0  0  0  0
  -43.3670   -1.6964   17.9538 C   0  0  0  0  0  0
  -44.4860   -2.1069   14.5670 C   0  0  0  0  0  0
  -53.1363   -4.3561   15.4571 C   0  0  0  0  0  0
  -48.9060   -5.5698   16.6532 C   0  0  0  0  0  0
  -46.3893   -0.9512   17.0380 C   0  0  0  0  0  0
  -50.2848   -2.7491   15.8631 C   0  0  0  0  0  0
  1  2  1  0  0  0
  1 15  1  0  0  0
  2 16  1  0  0  0
  3 15  2  0  0  0
  4 16  2  0  0  0
  5  7  1  0  0  0
  5  8  1  0  0  0
  5 15  1  0  0  0
  6  9  1  0  0  0
  6 10  1  0  0  0
  6 16  1  0  0  0
  7 11  1  0  0  0
  8 12  1  0  0  0
  9 13  1  0  0  0
 10 14  1  0  0  0
M  END
>  <CHROM.0>
-59.66077190,-177.51177931,-178.88423396

>  <CHROM.1>
-174.34849020,-19.31738911,-46.00657192,-103.70156246,91.40513337,94.63485713
102.81158338,-48.10392369,-2.24722232,16.35734921,0.08227190,-0.43926645
-0.94530305

>  <HEADER>
                                                                          

>  <MASTER>
        0    0    0    0    0    0    0    0   36    0   36    0          

>  <Name>
Disulfiram.pdb

>  <RI>
-2.25844e+08

>  <Rbt.Current_Directory>
/root/miniconda3/envs/rdock/share/rxdock-2013.1.1_148c5bd1-0/data/ligands/prepped_ligands/Disulfiram

>  <Rbt.Executable>
rbdock/0.1.0

>  <Rbt.Library>
librxdock.so/0.1.0

>  <Rbt.Parameter_File>
/root/miniconda3/envs/rdock/share/rxdock-2013.1.1_148c5bd1-0/data/scripts/dock.prm

>  <Rbt.Receptor>
def.prm

>  <SCORE>
-7.17575

>  <SCORE.INTER>
-3.96433

>  <SCORE.INTER.CONST>
1

>  <SCORE.INTER.POLAR>
-0.330631

>  <SCORE.INTER.REPUL>
0.0253061

>  <SCORE.INTER.ROT>
7

>  <SCORE.INTER.VDW>
-15.3667

>  <SCORE.INTER.norm>
-0.24777

>  <SCORE.INTRA>
-2.11148

>  <SCORE.INTRA.DIHEDRAL>
-8.38724

>  <SCORE.INTRA.DIHEDRAL.0>
20.6363

>  <SCORE.INTRA.POLAR>
0

>  <SCORE.INTRA.POLAR.0>
0

>  <SCORE.INTRA.REPUL>
0

>  <SCORE.INTRA.REPUL.0>
0

>  <SCORE.INTRA.VDW>
2.08214

>  <SCORE.INTRA.VDW.0>
-2.69438

>  <SCORE.INTRA.norm>
-0.131967

>  <SCORE.RESTR>
0

>  <SCORE.RESTR.CAVITY>
0

>  <SCORE.RESTR.norm>
0

>  <SCORE.SYSTEM>
-1.09995

>  <SCORE.SYSTEM.CONST>
0

>  <SCORE.SYSTEM.DIHEDRAL>
0.0329048

>  <SCORE.SYSTEM.POLAR>
-0.0046756

>  <SCORE.SYSTEM.VDW>
-1.10051

>  <SCORE.SYSTEM.norm>
-0.068747

>  <SCORE.heavy>
16

>  <SCORE.norm>
-0.448485

>  <TITLE>
    Disulfiram                                                            

$$$$
Disulfiram.pdb
  RxDock  02242112563D
librxdock.so/0.1.0
 16 15  0  0  0  0  0  0  0  0999 V2000
  -47.1859   -0.1211   16.4463 S   0  0  0  0  0  0
  -49.2372   -0.0990   16.6557 S   0  0  0  0  0  0
  -47.3932    2.0260   18.4965 S   0  0  0  0  0  0
  -50.0388    0.0372   13.7931 S   0  0  0  0  0  0
  -45.6795   -0.1263   18.7042 N   0  0  0  0  0  0
  -49.8702   -2.3170   15.2220 N   0  0  0  0  0  0
  -45.1452    0.2861   20.0067 C   0  0  0  0  0  0
  -45.0772   -1.3586   18.1901 C   0  0  0  0  0  0
  -50.2593   -3.1194   14.0593 C   0  0  0  0  0  0
  -49.5976   -3.1176   16.4199 C   0  0  0  0  0  0
  -45.9540   -0.2973   21.1472 C   0  0  0  0  0  0
  -43.8987   -1.0656   17.2851 C   0  0  0  0  0  0
  -49.1157   -3.2646   13.0774 C   0  0  0  0  0  0
  -48.1460   -3.5437   16.4831 C   0  0  0  0  0  0
  -46.6634    0.5867   17.9897 C   0  0  0  0  0  0
  -49.7557   -0.9128   15.1627 C   0  0  0  0  0  0
  1  2  1  0  0  0
  1 15  1  0  0  0
  2 16  1  0  0  0
  3 15  2  0  0  0
  4 16  2  0  0  0
  5  7  1  0  0  0
  5  8  1  0  0  0
  5 15  1  0  0  0
  6  9  1  0  0  0
  6 10  1  0  0  0
  6 16  1  0  0  0
  7 11  1  0  0  0
  8 12  1  0  0  0
  9 13  1  0  0  0
 10 14  1  0  0  0
M  END
>  <CHROM.0>
178.35185785,-167.32271621,-177.23648973

>  <CHROM.1>
-176.13324883,-49.28743414,-89.73249097,-90.94405433,-93.13139637,-102.92841361
89.17152586,-47.85768216,-0.68942761,16.71176455,0.61482866,-0.72411747,0.39286889

>  <HEADER>
                                                                          

>  <MASTER>
        0    0    0    0    0    0    0    0   36    0   36    0          

>  <Name>
Disulfiram.pdb

>  <RI>
-2.25844e+08

>  <Rbt.Current_Directory>
/root/miniconda3/envs/rdock/share/rxdock-2013.1.1_148c5bd1-0/data/ligands/prepped_ligands/Disulfiram

>  <Rbt.Executable>
rbdock/0.1.0

>  <Rbt.Library>
librxdock.so/0.1.0

>  <Rbt.Parameter_File>
/root/miniconda3/envs/rdock/share/rxdock-2013.1.1_148c5bd1-0/data/scripts/dock.prm

>  <Rbt.Receptor>
def.prm

>  <SCORE>
-9.16072

>  <SCORE.INTER>
-7.14968

>  <SCORE.INTER.CONST>
1

>  <SCORE.INTER.POLAR>
-0.871728

>  <SCORE.INTER.REPUL>
0.0299622

>  <SCORE.INTER.ROT>
7

>  <SCORE.INTER.VDW>
-16.7356

>  <SCORE.INTER.norm>
-0.446855

>  <SCORE.INTRA>
-1.29204

>  <SCORE.INTRA.DIHEDRAL>
-4.51443

>  <SCORE.INTRA.DIHEDRAL.0>
20.6363

>  <SCORE.INTRA.POLAR>
0

>  <SCORE.INTRA.POLAR.0>
0

>  <SCORE.INTRA.REPUL>
0

>  <SCORE.INTRA.REPUL.0>
0

>  <SCORE.INTRA.VDW>
0.965173

>  <SCORE.INTRA.VDW.0>
-2.69438

>  <SCORE.INTRA.norm>
-0.0807527

>  <SCORE.RESTR>
0

>  <SCORE.RESTR.CAVITY>
0

>  <SCORE.RESTR.norm>
0

>  <SCORE.SYSTEM>
-0.718993

>  <SCORE.SYSTEM.CONST>
0

>  <SCORE.SYSTEM.DIHEDRAL>
0.789073

>  <SCORE.SYSTEM.POLAR>
-0.00820569

>  <SCORE.SYSTEM.VDW>
-1.08563

>  <SCORE.SYSTEM.norm>
-0.0449371

>  <SCORE.heavy>
16

>  <SCORE.norm>
-0.572545

>  <TITLE>
    Disulfiram                                                            

$$$$
Disulfiram.pdb
  RxDock  02242112563D
librxdock.so/0.1.0
 16 15  0  0  0  0  0  0  0  0999 V2000
  -51.2274   -0.6912   17.6306 S   0  0  0  0  0  0
  -49.4762    0.3912   17.7478 S   0  0  0  0  0  0
  -49.3827   -2.3503   19.2739 S   0  0  0  0  0  0
  -49.0943   -1.4787   15.4646 S   0  0  0  0  0  0
  -51.4469   -3.3931   17.7693 N   0  0  0  0  0  0
  -47.0179   -0.4615   16.9700 N   0  0  0  0  0  0
  -51.1805   -4.7799   18.1667 C   0  0  0  0  0  0
  -52.5663   -3.2588   16.8341 C   0  0  0  0  0  0
  -46.0138   -1.1683   16.1703 C   0  0  0  0  0  0
  -46.4412    0.3596   18.0393 C   0  0  0  0  0  0
  -51.7258   -5.0745   19.5491 C   0  0  0  0  0  0
  -52.0913   -3.2526   15.3960 C   0  0  0  0  0  0
  -45.7426   -0.4542   14.8628 C   0  0  0  0  0  0
  -46.4210   -0.3832   19.3586 C   0  0  0  0  0  0
  -50.7010   -2.2837   18.2163 C   0  0  0  0  0  0
  -48.3989   -0.5614   16.7030 C   0  0  0  0  0  0
  1  2  1  0  0  0
  1 15  1  0  0  0
  2 16  1  0  0  0
  3 15  2  0  0  0
  4 16  2  0  0  0
  5  7  1  0  0  0
  5  8  1  0  0  0
  5 15  1  0  0  0
  6  9  1  0  0  0
  6 10  1  0  0  0
  6 16  1  0  0  0
  7 11  1  0  0  0
  8 12  1  0  0  0
  9 13  1  0  0  0
 10 14  1  0  0  0
M  END
>  <CHROM.0>
-176.21084176,64.25392479,-61.96345398

>  <CHROM.1>
58.17803748,26.72197085,26.92862041,-102.15275900,-93.89448912,-100.06130982
-95.63645506,-49.41897315,-1.62696865,17.41744370,2.87371865,0.55739043,1.74268281

>  <HEADER>
                                                                          

>  <MASTER>
        0    0    0    0    0    0    0    0   36    0   36    0          

>  <Name>
Disulfiram.pdb

>  <RI>
-2.25844e+08

>  <Rbt.Current_Directory>
/root/miniconda3/envs/rdock/share/rxdock-2013.1.1_148c5bd1-0/data/ligands/prepped_ligands/Disulfiram

>  <Rbt.Executable>
rbdock/0.1.0

>  <Rbt.Library>
librxdock.so/0.1.0

>  <Rbt.Parameter_File>
/root/miniconda3/envs/rdock/share/rxdock-2013.1.1_148c5bd1-0/data/scripts/dock.prm

>  <Rbt.Receptor>
def.prm

>  <SCORE>
-4.87357

>  <SCORE.INTER>
0.291988

>  <SCORE.INTER.CONST>
1

>  <SCORE.INTER.POLAR>
0

>  <SCORE.INTER.REPUL>
0.0126787

>  <SCORE.INTER.ROT>
7

>  <SCORE.INTER.VDW>
-12.1714

>  <SCORE.INTER.norm>
0.0182493

>  <SCORE.INTRA>
-4.17017

>  <SCORE.INTRA.DIHEDRAL>
-9.45455

>  <SCORE.INTRA.DIHEDRAL.0>
20.6363

>  <SCORE.INTRA.POLAR>
0

>  <SCORE.INTRA.POLAR.0>
0

>  <SCORE.INTRA.REPUL>
0

>  <SCORE.INTRA.REPUL.0>
0

>  <SCORE.INTRA.VDW>
0.557107

>  <SCORE.INTRA.VDW.0>
-2.69438

>  <SCORE.INTRA.norm>
-0.260635

>  <SCORE.RESTR>
0

>  <SCORE.RESTR.CAVITY>
0

>  <SCORE.RESTR.norm>
0

>  <SCORE.SYSTEM>
-0.995394

>  <SCORE.SYSTEM.CONST>
0

>  <SCORE.SYSTEM.DIHEDRAL>
0.13276

>  <SCORE.SYSTEM.VDW>
-1.06177

>  <SCORE.SYSTEM.norm>
-0.0622121

>  <SCORE.heavy>
16

>  <SCORE.norm>
-0.304598

>  <TITLE>
    Disulfiram                                                            

$$$$
Disulfiram.pdb
  RxDock  02242112563D
librxdock.so/0.1.0
 16 15  0  0  0  0  0  0  0  0999 V2000
  -47.0184   -0.5014   15.6547 S   0  0  0  0  0  0
  -47.6257   -2.2926   14.8331 S   0  0  0  0  0  0
  -44.3078   -1.3630   14.7790 S   0  0  0  0  0  0
  -50.1499   -1.0575   13.8540 S   0  0  0  0  0  0
  -44.9168   -0.6290   17.3679 N   0  0  0  0  0  0
  -50.0539   -2.9607   15.8493 N   0  0  0  0  0  0
  -43.5499   -0.8293   17.8615 C   0  0  0  0  0  0
  -45.8548   -0.1965   18.4066 C   0  0  0  0  0  0
  -51.5112   -2.9592   16.0020 C   0  0  0  0  0  0
  -49.3737   -3.9053   16.7411 C   0  0  0  0  0  0
  -43.2912   -2.2827   18.2018 C   0  0  0  0  0  0
  -45.8789    1.3119   18.5403 C   0  0  0  0  0  0
  -51.9427   -2.1418   17.2016 C   0  0  0  0  0  0
  -49.3272   -5.2959   16.1438 C   0  0  0  0  0  0
  -45.3164   -0.8428   16.0332 C   0  0  0  0  0  0
  -49.3948   -2.1384   14.9124 C   0  0  0  0  0  0
  1  2  1  0  0  0
  1 15  1  0  0  0
  2 16  1  0  0  0
  3 15  2  0  0  0
  4 16  2  0  0  0
  5  7  1  0  0  0
  5  8  1  0  0  0
  5 15  1  0  0  0
  6  9  1  0  0  0
  6 10  1  0  0  0
  6 16  1  0  0  0
  7 11  1  0  0  0
  8 12  1  0  0  0
  9 13  1  0  0  0
 10 14  1  0  0  0
M  END
>  <CHROM.0>
-63.89342806,-64.12563104,58.05556030

>  <CHROM.1>
163.51955417,56.11056964,71.87737736,95.89737073,88.31151553,80.01595739
85.07484384,-47.42582124,-1.65370173,16.03297126,-0.19494474,-0.33016677
-1.42613552

>  <HEADER>
                                                                          

>  <MASTER>
        0    0    0    0    0    0    0    0   36    0   36    0          

>  <Name>
Disulfiram.pdb

>  <RI>
-2.25844e+08

>  <Rbt.Current_Directory>
/root/miniconda3/envs/rdock/share/rxdock-2013.1.1_148c5bd1-0/data/ligands/prepped_ligands/Disulfiram

>  <Rbt.Executable>
rbdock/0.1.0

>  <Rbt.Library>
librxdock.so/0.1.0

>  <Rbt.Parameter_File>
/root/miniconda3/envs/rdock/share/rxdock-2013.1.1_148c5bd1-0/data/scripts/dock.prm

>  <Rbt.Receptor>
def.prm

>  <SCORE>
-9.61861

>  <SCORE.INTER>
-8.49637

>  <SCORE.INTER.CONST>
1

>  <SCORE.INTER.POLAR>
-0.824621

>  <SCORE.INTER.REPUL>
0

>  <SCORE.INTER.ROT>
7

>  <SCORE.INTER.VDW>
-18.0927

>  <SCORE.INTER.norm>
-0.531023

>  <SCORE.INTRA>
-0.0919633

>  <SCORE.INTRA.DIHEDRAL>
-3.32313

>  <SCORE.INTRA.DIHEDRAL.0>
20.6363

>  <SCORE.INTRA.POLAR>
0

>  <SCORE.INTRA.POLAR.0>
0

>  <SCORE.INTRA.REPUL>
0

>  <SCORE.INTRA.REPUL.0>
0

>  <SCORE.INTRA.VDW>
1.5696

>  <SCORE.INTRA.VDW.0>
-2.69438

>  <SCORE.INTRA.norm>
-0.0057477

>  <SCORE.RESTR>
0

>  <SCORE.RESTR.CAVITY>
0

>  <SCORE.RESTR.norm>
0

>  <SCORE.SYSTEM>
-1.03028

>  <SCORE.SYSTEM.CONST>
0

>  <SCORE.SYSTEM.DIHEDRAL>
0.134902

>  <SCORE.SYSTEM.VDW>
-1.09773

>  <SCORE.SYSTEM.norm>
-0.0643926

>  <SCORE.heavy>
16

>  <SCORE.norm>
-0.601163

>  <TITLE>
    Disulfiram                                                            

$$$$
Disulfiram.pdb
  RxDock  02242112563D
librxdock.so/0.1.0
 16 15  0  0  0  0  0  0  0  0999 V2000
  -47.5200   -1.8069   16.9611 S   0  0  0  0  0  0
  -47.3087   -3.8570   17.0285 S   0  0  0  0  0  0
  -46.2956   -0.6339   19.4066 S   0  0  0  0  0  0
  -49.3673   -3.5776   14.8978 S   0  0  0  0  0  0
  -44.8414   -1.4419   17.2056 N   0  0  0  0  0  0
  -49.4652   -5.5005   16.8740 N   0  0  0  0  0  0
  -43.5461   -1.0860   17.7950 C   0  0  0  0  0  0
  -44.7360   -1.9837   15.8487 C   0  0  0  0  0  0
  -50.7064   -6.0688   16.3415 C   0  0  0  0  0  0
  -48.9607   -6.2043   18.0574 C   0  0  0  0  0  0
  -43.1364   -2.0728   18.8691 C   0  0  0  0  0  0
  -44.9832   -0.9160   14.8033 C   0  0  0  0  0  0
  -51.9051   -5.2139   16.6958 C   0  0  0  0  0  0
  -47.9840   -7.2972   17.6776 C   0  0  0  0  0  0
  -46.0809   -1.2716   17.8548 C   0  0  0  0  0  0
  -48.8259   -4.3956   16.2749 C   0  0  0  0  0  0
  1  2  1  0  0  0
  1 15  1  0  0  0
  2 16  1  0  0  0
  3 15  2  0  0  0
  4 16  2  0  0  0
  5  7  1  0  0  0
  5  8  1  0  0  0
  5 15  1  0  0  0
  6  9  1  0  0  0
  6 10  1  0  0  0
  6 16  1  0  0  0
  7 11  1  0  0  0
  8 12  1  0  0  0
  9 13  1  0  0  0
 10 14  1  0  0  0
M  END
>  <CHROM.0>
61.27224416,177.45500497,-55.91988117

>  <CHROM.1>
174.71814841,-107.75229615,42.69419820,-107.07107197,-97.02180884,104.13342388
91.97397738,-47.31864715,-3.13691061,17.04514172,0.27099848,-0.67235984,-0.86994517

>  <HEADER>
                                                                          

>  <MASTER>
        0    0    0    0    0    0    0    0   36    0   36    0          

>  <Name>
Disulfiram.pdb

>  <RI>
-2.25844e+08

>  <Rbt.Current_Directory>
/root/miniconda3/envs/rdock/share/rxdock-2013.1.1_148c5bd1-0/data/ligands/prepped_ligands/Disulfiram

>  <Rbt.Executable>
rbdock/0.1.0

>  <Rbt.Library>
librxdock.so/0.1.0

>  <Rbt.Parameter_File>
/root/miniconda3/envs/rdock/share/rxdock-2013.1.1_148c5bd1-0/data/scripts/dock.prm

>  <Rbt.Receptor>
def.prm

>  <SCORE>
-7.15334

>  <SCORE.INTER>
-4.50309

>  <SCORE.INTER.CONST>
1

>  <SCORE.INTER.POLAR>
0

>  <SCORE.INTER.REPUL>
0

>  <SCORE.INTER.ROT>
7

>  <SCORE.INTER.VDW>
-16.9031

>  <SCORE.INTER.norm>
-0.281443

>  <SCORE.INTRA>
-1.62189

>  <SCORE.INTRA.DIHEDRAL>
-5.45365

>  <SCORE.INTRA.DIHEDRAL.0>
20.6363

>  <SCORE.INTRA.POLAR>
0

>  <SCORE.INTRA.POLAR.0>
0

>  <SCORE.INTRA.REPUL>
0

>  <SCORE.INTRA.REPUL.0>
0

>  <SCORE.INTRA.VDW>
1.10493

>  <SCORE.INTRA.VDW.0>
-2.69438

>  <SCORE.INTRA.norm>
-0.101368

>  <SCORE.RESTR>
0

>  <SCORE.RESTR.CAVITY>
0

>  <SCORE.RESTR.norm>
0

>  <SCORE.SYSTEM>
-1.02835

>  <SCORE.SYSTEM.CONST>
0

>  <SCORE.SYSTEM.DIHEDRAL>
0.0727836

>  <SCORE.SYSTEM.POLAR>
-0.00982494

>  <SCORE.SYSTEM.VDW>
-1.03134

>  <SCORE.SYSTEM.norm>
-0.0642719

>  <SCORE.heavy>
16

>  <SCORE.norm>
-0.447083

>  <TITLE>
    Disulfiram                                                            

$$$$
Disulfiram.pdb
  RxDock  02242112573D
librxdock.so/0.1.0
 16 15  0  0  0  0  0  0  0  0999 V2000
  -45.4992   -0.5814   15.4642 S   0  0  0  0  0  0
  -46.7975   -2.1702   15.6697 S   0  0  0  0  0  0
  -43.1404   -1.8878   16.7234 S   0  0  0  0  0  0
  -47.8647   -0.3420   13.5782 S   0  0  0  0  0  0
  -44.7355   -0.0423   18.0125 N   0  0  0  0  0  0
  -49.0779   -2.7132   14.2984 N   0  0  0  0  0  0
  -43.9554   -0.0738   19.2545 C   0  0  0  0  0  0
  -45.8890    0.8587   18.0707 C   0  0  0  0  0  0
  -50.1503   -2.5309   13.3166 C   0  0  0  0  0  0
  -49.1906   -3.9596   15.0625 C   0  0  0  0  0  0
  -42.7394    0.8258   19.1679 C   0  0  0  0  0  0
  -47.1677    0.1055   18.3734 C   0  0  0  0  0  0
  -51.2271   -1.6019   13.8368 C   0  0  0  0  0  0
  -49.7512   -3.7119   16.4470 C   0  0  0  0  0  0
  -44.4345   -0.8084   16.8683 C   0  0  0  0  0  0
  -48.0372   -1.7752   14.4586 C   0  0  0  0  0  0
  1  2  1  0  0  0
  1 15  1  0  0  0
  2 16  1  0  0  0
  3 15  2  0  0  0
  4 16  2  0  0  0
  5  7  1  0  0  0
  5  8  1  0  0  0
  5 15  1  0  0  0
  6  9  1  0  0  0
  6 10  1  0  0  0
  6 16  1  0  0  0
  7 11  1  0  0  0
  8 12  1  0  0  0
  9 13  1  0  0  0
 10 14  1  0  0  0
M  END
>  <CHROM.0>
-179.91921706,-172.95360546,-59.67371219

>  <CHROM.1>
169.78701236,83.62426197,-1.23533708,-98.31623596,-98.27974409,99.56099132
-101.86127058,-46.62368997,-1.26552319,15.98473324,-0.63295739,-0.13654527
-1.88169360

>  <HEADER>
                                                                          

>  <MASTER>
        0    0    0    0    0    0    0    0   36    0   36    0          

>  <Name>
Disulfiram.pdb

>  <RI>
-2.25844e+08

>  <Rbt.Current_Directory>
/root/miniconda3/envs/rdock/share/rxdock-2013.1.1_148c5bd1-0/data/ligands/prepped_ligands/Disulfiram

>  <Rbt.Executable>
rbdock/0.1.0

>  <Rbt.Library>
librxdock.so/0.1.0

>  <Rbt.Parameter_File>
/root/miniconda3/envs/rdock/share/rxdock-2013.1.1_148c5bd1-0/data/scripts/dock.prm

>  <Rbt.Receptor>
def.prm

>  <SCORE>
-7.67436

>  <SCORE.INTER>
-5.20068

>  <SCORE.INTER.CONST>
1

>  <SCORE.INTER.POLAR>
-0.329857

>  <SCORE.INTER.REPUL>
0.0431026

>  <SCORE.INTER.ROT>
7

>  <SCORE.INTER.VDW>
-16.6947

>  <SCORE.INTER.norm>
-0.325043

>  <SCORE.INTRA>
-1.50501

>  <SCORE.INTRA.DIHEDRAL>
-6.63662

>  <SCORE.INTRA.DIHEDRAL.0>
20.6363

>  <SCORE.INTRA.POLAR>
0

>  <SCORE.INTRA.POLAR.0>
0

>  <SCORE.INTRA.REPUL>
0

>  <SCORE.INTRA.REPUL.0>
0

>  <SCORE.INTRA.VDW>
1.8133

>  <SCORE.INTRA.VDW.0>
-2.69438

>  <SCORE.INTRA.norm>
-0.0940633

>  <SCORE.RESTR>
0

>  <SCORE.RESTR.CAVITY>
0

>  <SCORE.RESTR.norm>
0

>  <SCORE.SYSTEM>
-0.968671

>  <SCORE.SYSTEM.CONST>
0

>  <SCORE.SYSTEM.DIHEDRAL>
0.242408

>  <SCORE.SYSTEM.POLAR>
-0.00161049

>  <SCORE.SYSTEM.VDW>
-1.0844

>  <SCORE.SYSTEM.norm>
-0.0605419

>  <SCORE.heavy>
16

>  <SCORE.norm>
-0.479648

>  <TITLE>
    Disulfiram                                                            

$$$$
Disulfiram.pdb
  RxDock  02242112573D
librxdock.so/0.1.0
 16 15  0  0  0  0  0  0  0  0999 V2000
  -49.9379   -2.8168   15.9849 S   0  0  0  0  0  0
  -50.3334   -4.8110   16.3299 S   0  0  0  0  0  0
  -47.4723   -4.0415   17.1151 S   0  0  0  0  0  0
  -52.7200   -3.7062   14.9373 S   0  0  0  0  0  0
  -47.5213   -1.5876   15.8549 N   0  0  0  0  0  0
  -52.7707   -6.0010   16.4683 N   0  0  0  0  0  0
  -46.0806   -1.3581   16.0089 C   0  0  0  0  0  0
  -48.2192   -0.4874   15.1854 C   0  0  0  0  0  0
  -54.1947   -6.2190   16.2002 C   0  0  0  0  0  0
  -52.1699   -7.0370   17.3143 C   0  0  0  0  0  0
  -45.2833   -2.1292   14.9769 C   0  0  0  0  0  0
  -48.4094   -0.7666   13.7091 C   0  0  0  0  0  0
  -54.4144   -6.8355   14.8347 C   0  0  0  0  0  0
  -51.9876   -6.5533   18.7375 C   0  0  0  0  0  0
  -48.1938   -2.7382   16.3140 C   0  0  0  0  0  0
  -52.0640   -4.9036   15.9345 C   0  0  0  0  0  0
  1  2  1  0  0  0
  1 15  1  0  0  0
  2 16  1  0  0  0
  3 15  2  0  0  0
  4 16  2  0  0  0
  5  7  1  0  0  0
  5  8  1  0  0  0
  5 15  1  0  0  0
  6  9  1  0  0  0
  6 10  1  0  0  0
  6 16  1  0  0  0
  7 11  1  0  0  0
  8 12  1  0  0  0
  9 13  1  0  0  0
 10 14  1  0  0  0
M  END
>  <CHROM.0>
63.03942687,61.06377650,59.12615380

>  <CHROM.1>
-177.72451093,-14.22509954,21.53034112,-101.89856262,97.29826734,-99.85212054
-102.90402574,-50.11060294,-3.87046296,16.01025638,0.51808125,-0.34071937
-0.68593772

>  <HEADER>
                                                                          

>  <MASTER>
        0    0    0    0    0    0    0    0   36    0   36    0          

>  <Name>
Disulfiram.pdb

>  <RI>
-2.25844e+08

>  <Rbt.Current_Directory>
/root/miniconda3/envs/rdock/share/rxdock-2013.1.1_148c5bd1-0/data/ligands/prepped_ligands/Disulfiram

>  <Rbt.Executable>
rbdock/0.1.0

>  <Rbt.Library>
librxdock.so/0.1.0

>  <Rbt.Parameter_File>
/root/miniconda3/envs/rdock/share/rxdock-2013.1.1_148c5bd1-0/data/scripts/dock.prm

>  <Rbt.Receptor>
def.prm

>  <SCORE>
-9.07434

>  <SCORE.INTER>
-5.64721

>  <SCORE.INTER.CONST>
1

>  <SCORE.INTER.POLAR>
-0.0919659

>  <SCORE.INTER.REPUL>
0

>  <SCORE.INTER.ROT>
7

>  <SCORE.INTER.VDW>
-17.7345

>  <SCORE.INTER.norm>
-0.352951

>  <SCORE.INTRA>
-2.46133

>  <SCORE.INTRA.DIHEDRAL>
-10.3224

>  <SCORE.INTRA.DIHEDRAL.0>
20.6363

>  <SCORE.INTRA.POLAR>
0

>  <SCORE.INTRA.POLAR.0>
0

>  <SCORE.INTRA.REPUL>
0

>  <SCORE.INTRA.REPUL.0>
0

>  <SCORE.INTRA.VDW>
2.69989

>  <SCORE.INTRA.VDW.0>
-2.69438

>  <SCORE.INTRA.norm>
-0.153833

>  <SCORE.RESTR>
0

>  <SCORE.RESTR.CAVITY>
0

>  <SCORE.RESTR.norm>
0

>  <SCORE.SYSTEM>
-0.965797

>  <SCORE.SYSTEM.CONST>
0

>  <SCORE.SYSTEM.DIHEDRAL>
0.0288879

>  <SCORE.SYSTEM.VDW>
-0.980241

>  <SCORE.SYSTEM.norm>
-0.0603623

>  <SCORE.heavy>
16

>  <SCORE.norm>
-0.567146

>  <TITLE>
    Disulfiram                                                            

$$$$
Disulfiram.pdb
  RxDock  02242112573D
librxdock.so/0.1.0
 16 15  0  0  0  0  0  0  0  0999 V2000
  -50.2916   -4.6234   15.9980 S   0  0  0  0  0  0
  -49.8561   -2.6226   16.2409 S   0  0  0  0  0  0
  -52.6688   -3.3189   14.7718 S   0  0  0  0  0  0
  -47.3310   -3.9358   17.1097 S   0  0  0  0  0  0
  -52.8007   -5.6152   16.2955 N   0  0  0  0  0  0
  -47.4124   -1.5963   15.6491 N   0  0  0  0  0  0
  -54.2537   -5.7576   16.1511 C   0  0  0  0  0  0
  -52.1916   -6.6591   17.1231 C   0  0  0  0  0  0
  -45.9506   -1.5088   15.5970 C   0  0  0  0  0  0
  -48.0889   -0.5049   14.9411 C   0  0  0  0  0  0
  -54.6190   -6.3922   14.8248 C   0  0  0  0  0  0
  -52.0109   -6.1985   18.5546 C   0  0  0  0  0  0
  -45.3881   -0.8665   16.8478 C   0  0  0  0  0  0
  -48.5611   -0.9423   13.5706 C   0  0  0  0  0  0
  -52.0455   -4.5742   15.7187 C   0  0  0  0  0  0
  -48.0799   -2.6507   16.3057 C   0  0  0  0  0  0
  1  2  1  0  0  0
  1 15  1  0  0  0
  2 16  1  0  0  0
  3 15  2  0  0  0
  4 16  2  0  0  0
  5  7  1  0  0  0
  5  8  1  0  0  0
  5 15  1  0  0  0
  6  9  1  0  0  0
  6 10  1  0  0  0
  6 16  1  0  0  0
  7 11  1  0  0  0
  8 12  1  0  0  0
  9 13  1  0  0  0
 10 14  1  0  0  0
M  END
>  <CHROM.0>
63.10839511,65.03484701,-65.77987372

>  <CHROM.1>
-172.86344803,39.02281673,-37.82548456,-100.16662077,-96.36282455,97.29705744
100.14443378,-50.08338796,-3.61385631,15.99225677,-2.71291499,-0.37904720
-0.71419134

>  <HEADER>
                                                                          

>  <MASTER>
        0    0    0    0    0    0    0    0   36    0   36    0          

>  <Name>
Disulfiram.pdb

>  <RI>
-2.25844e+08

>  <Rbt.Current_Directory>
/root/miniconda3/envs/rdock/share/rxdock-2013.1.1_148c5bd1-0/data/ligands/prepped_ligands/Disulfiram

>  <Rbt.Executable>
rbdock/0.1.0

>  <Rbt.Library>
librxdock.so/0.1.0

>  <Rbt.Parameter_File>
/root/miniconda3/envs/rdock/share/rxdock-2013.1.1_148c5bd1-0/data/scripts/dock.prm

>  <Rbt.Receptor>
def.prm

>  <SCORE>
-8.42925

>  <SCORE.INTER>
-5.12415

>  <SCORE.INTER.CONST>
1

>  <SCORE.INTER.POLAR>
-0.144024

>  <SCORE.INTER.REPUL>
0.0229174

>  <SCORE.INTER.ROT>
7

>  <SCORE.INTER.VDW>
-17.1491

>  <SCORE.INTER.norm>
-0.32026

>  <SCORE.INTRA>
-2.34124

>  <SCORE.INTRA.DIHEDRAL>
-7.66895

>  <SCORE.INTRA.DIHEDRAL.0>
20.6363

>  <SCORE.INTRA.POLAR>
0

>  <SCORE.INTRA.POLAR.0>
0

>  <SCORE.INTRA.REPUL>
0

>  <SCORE.INTRA.REPUL.0>
0

>  <SCORE.INTRA.VDW>
1.49324

>  <SCORE.INTRA.VDW.0>
-2.69438

>  <SCORE.INTRA.norm>
-0.146328

>  <SCORE.RESTR>
0

>  <SCORE.RESTR.CAVITY>
0

>  <SCORE.RESTR.norm>
0

>  <SCORE.SYSTEM>
-0.963853

>  <SCORE.SYSTEM.CONST>
0

>  <SCORE.SYSTEM.DIHEDRAL>
0.232512

>  <SCORE.SYSTEM.VDW>
-1.08011

>  <SCORE.SYSTEM.norm>
-0.0602408

>  <SCORE.heavy>
16

>  <SCORE.norm>
-0.526828

>  <TITLE>
    Disulfiram                                                            

$$$$
