Disulfiram.pdb
  RxDock  02242109463D
librxdock.so/0.1.0
 16 15  0  0  0  0  0  0  0  0999 V2000
  -48.3383   -2.0827   14.3393 S   0  0  0  0  0  0
  -49.1520   -3.8364   15.0566 S   0  0  0  0  0  0
  -49.8765   -0.3861   16.2397 S   0  0  0  0  0  0
  -51.5619   -2.3347   14.1661 S   0  0  0  0  0  0
  -47.1712   -0.8752   16.4718 N   0  0  0  0  0  0
  -51.4973   -3.9201   16.4232 N   0  0  0  0  0  0
  -47.0227   -0.0827   17.6974 C   0  0  0  0  0  0
  -45.9155   -1.4667   16.0037 C   0  0  0  0  0  0
  -52.9034   -3.6436   16.7294 C   0  0  0  0  0  0
  -50.8592   -4.8309   17.3789 C   0  0  0  0  0  0
  -47.6357   -0.7871   18.8903 C   0  0  0  0  0  0
  -45.2896   -0.6403   14.8995 C   0  0  0  0  0  0
  -53.8287   -4.5816   15.9831 C   0  0  0  0  0  0
  -50.9575   -6.2712   16.9220 C   0  0  0  0  0  0
  -48.3891   -1.0501   15.7841 C   0  0  0  0  0  0
  -50.8493   -3.3674   15.2993 C   0  0  0  0  0  0
  1  2  1  0  0  0
  1 15  1  0  0  0
  2 16  1  0  0  0
  3 15  2  0  0  0
  4 16  2  0  0  0
  5  7  1  0  0  0
  5  8  1  0  0  0
  5 15  1  0  0  0
  6  9  1  0  0  0
  6 10  1  0  0  0
  6 16  1  0  0  0
  7 11  1  0  0  0
  8 12  1  0  0  0
  9 13  1  0  0  0
 10 14  1  0  0  0
M  END
>  <CHROM.0>
-61.02247317,61.99586301,178.87985456

>  <CHROM.1>
69.78386536,-76.51556877,37.99401401,-108.08951788,-98.51158828,-93.77954610
92.30525264,-49.51832133,-2.43641455,15.86806660,0.01331523,-0.59465470,-1.48118668

>  <HEADER>
                                                                          

>  <MASTER>
        0    0    0    0    0    0    0    0   36    0   36    0          

>  <Name>
Disulfiram.pdb

>  <RI>
-9.14787e+08

>  <Rbt.Current_Directory>
/root/miniconda3/envs/rdock/share/rxdock-2013.1.1_148c5bd1-0/data/ligands/prepped_ligands/Disulfiram

>  <Rbt.Executable>
rbdock/0.1.0

>  <Rbt.Library>
librxdock.so/0.1.0

>  <Rbt.Parameter_File>
/root/miniconda3/envs/rdock/share/rxdock-2013.1.1_148c5bd1-0/data/scripts/dock.prm

>  <Rbt.Receptor>
def.prm

>  <SCORE>
-7.20726

>  <SCORE.INTER>
-4.28699

>  <SCORE.INTER.CONST>
1

>  <SCORE.INTER.POLAR>
-0.465659

>  <SCORE.INTER.REPUL>
0

>  <SCORE.INTER.ROT>
7

>  <SCORE.INTER.VDW>
-15.1038

>  <SCORE.INTER.norm>
-0.267937

>  <SCORE.INTRA>
-1.88539

>  <SCORE.INTRA.DIHEDRAL>
-5.11667

>  <SCORE.INTRA.DIHEDRAL.0>
20.6363

>  <SCORE.INTRA.POLAR>
0

>  <SCORE.INTRA.POLAR.0>
0

>  <SCORE.INTRA.REPUL>
0

>  <SCORE.INTRA.REPUL.0>
0

>  <SCORE.INTRA.VDW>
0.672946

>  <SCORE.INTRA.VDW.0>
-2.69438

>  <SCORE.INTRA.norm>
-0.117837

>  <SCORE.RESTR>
0

>  <SCORE.RESTR.CAVITY>
0

>  <SCORE.RESTR.norm>
0

>  <SCORE.SYSTEM>
-1.03489

>  <SCORE.SYSTEM.CONST>
0

>  <SCORE.SYSTEM.DIHEDRAL>
0.0271829

>  <SCORE.SYSTEM.VDW>
-1.04848

>  <SCORE.SYSTEM.norm>
-0.0646803

>  <SCORE.heavy>
16

>  <SCORE.norm>
-0.450454

>  <TITLE>
    Disulfiram                                                            

$$$$
Disulfiram.pdb
  RxDock  02242109463D
librxdock.so/0.1.0
 16 15  0  0  0  0  0  0  0  0999 V2000
  -50.9269   -5.2121   17.4320 S   0  0  0  0  0  0
  -50.0291   -5.1875   15.5757 S   0  0  0  0  0  0
  -52.0084   -7.9787   17.6127 S   0  0  0  0  0  0
  -47.8608   -4.1458   17.3276 S   0  0  0  0  0  0
  -53.4421   -5.8379   16.6260 N   0  0  0  0  0  0
  -48.3624   -3.1936   14.7871 N   0  0  0  0  0  0
  -54.6506   -6.6278   16.3657 C   0  0  0  0  0  0
  -53.5730   -4.4290   16.2469 C   0  0  0  0  0  0
  -47.2549   -2.2372   14.8632 C   0  0  0  0  0  0
  -49.0761   -3.1608   13.5066 C   0  0  0  0  0  0
  -54.5267   -7.4232   15.0822 C   0  0  0  0  0  0
  -53.0018   -4.1691   14.8685 C   0  0  0  0  0  0
  -47.6674   -0.9658   15.5750 C   0  0  0  0  0  0
  -50.2873   -2.2544   13.5704 C   0  0  0  0  0  0
  -52.2533   -6.3647   17.1701 C   0  0  0  0  0  0
  -48.6776   -4.0657   15.8494 C   0  0  0  0  0  0
  1  2  1  0  0  0
  1 15  1  0  0  0
  2 16  1  0  0  0
  3 15  2  0  0  0
  4 16  2  0  0  0
  5  7  1  0  0  0
  5  8  1  0  0  0
  5 15  1  0  0  0
  6  9  1  0  0  0
  6 10  1  0  0  0
  6 16  1  0  0  0
  7 11  1  0  0  0
  8 12  1  0  0  0
  9 13  1  0  0  0
 10 14  1  0  0  0
M  END
>  <CHROM.0>
-50.93174184,-58.68482954,-178.59424865

>  <CHROM.1>
-178.63602097,95.93859931,38.96410470,99.94369771,-96.42181157,97.60891322
-94.42092514,-50.70564221,-4.81385822,16.04902379,-2.53739994,-0.35892657
-0.78155962

>  <HEADER>
                                                                          

>  <MASTER>
        0    0    0    0    0    0    0    0   36    0   36    0          

>  <Name>
Disulfiram.pdb

>  <RI>
-9.14787e+08

>  <Rbt.Current_Directory>
/root/miniconda3/envs/rdock/share/rxdock-2013.1.1_148c5bd1-0/data/ligands/prepped_ligands/Disulfiram

>  <Rbt.Executable>
rbdock/0.1.0

>  <Rbt.Library>
librxdock.so/0.1.0

>  <Rbt.Parameter_File>
/root/miniconda3/envs/rdock/share/rxdock-2013.1.1_148c5bd1-0/data/scripts/dock.prm

>  <Rbt.Receptor>
def.prm

>  <SCORE>
-9.22535

>  <SCORE.INTER>
-6.94901

>  <SCORE.INTER.CONST>
1

>  <SCORE.INTER.POLAR>
-0.163385

>  <SCORE.INTER.REPUL>
0

>  <SCORE.INTER.ROT>
7

>  <SCORE.INTER.VDW>
-18.7935

>  <SCORE.INTER.norm>
-0.434313

>  <SCORE.INTRA>
-1.32992

>  <SCORE.INTRA.DIHEDRAL>
-5.54516

>  <SCORE.INTRA.DIHEDRAL.0>
20.6363

>  <SCORE.INTRA.POLAR>
0

>  <SCORE.INTRA.POLAR.0>
0

>  <SCORE.INTRA.REPUL>
0

>  <SCORE.INTRA.REPUL.0>
0

>  <SCORE.INTRA.VDW>
1.44266

>  <SCORE.INTRA.VDW.0>
-2.69438

>  <SCORE.INTRA.norm>
-0.0831201

>  <SCORE.RESTR>
0

>  <SCORE.RESTR.CAVITY>
0

>  <SCORE.RESTR.norm>
0

>  <SCORE.SYSTEM>
-0.946418

>  <SCORE.SYSTEM.CONST>
0

>  <SCORE.SYSTEM.DIHEDRAL>
0.205117

>  <SCORE.SYSTEM.POLAR>
-0.00533339

>  <SCORE.SYSTEM.VDW>
-1.03084

>  <SCORE.SYSTEM.norm>
-0.0591511

>  <SCORE.heavy>
16

>  <SCORE.norm>
-0.576584

>  <TITLE>
    Disulfiram                                                            

$$$$
Disulfiram.pdb
  RxDock  02242109463D
librxdock.so/0.1.0
 16 15  0  0  0  0  0  0  0  0999 V2000
  -46.3451    0.2725   16.5176 S   0  0  0  0  0  0
  -47.9160   -0.9521   17.0513 S   0  0  0  0  0  0
  -47.0836    2.2198   18.6433 S   0  0  0  0  0  0
  -46.6412   -2.8875   15.1846 S   0  0  0  0  0  0
  -44.7943    0.6814   18.7074 N   0  0  0  0  0  0
  -49.2816   -2.1069   15.0076 N   0  0  0  0  0  0
  -44.3433    1.2122   19.9985 C   0  0  0  0  0  0
  -43.8764   -0.3024   18.1283 C   0  0  0  0  0  0
  -49.5221   -2.9752   13.8520 C   0  0  0  0  0  0
  -50.4703   -1.3641   15.4380 C   0  0  0  0  0  0
  -43.1956    2.1862   19.8266 C   0  0  0  0  0  0
  -44.3340   -1.7195   18.4048 C   0  0  0  0  0  0
  -49.9393   -4.3665   14.2804 C   0  0  0  0  0  0
  -51.1204   -2.0092   16.6438 C   0  0  0  0  0  0
  -45.9818    1.0771   18.0593 C   0  0  0  0  0  0
  -48.0238   -2.0275   15.6400 C   0  0  0  0  0  0
  1  2  1  0  0  0
  1 15  1  0  0  0
  2 16  1  0  0  0
  3 15  2  0  0  0
  4 16  2  0  0  0
  5  7  1  0  0  0
  5  8  1  0  0  0
  5 15  1  0  0  0
  6  9  1  0  0  0
  6 10  1  0  0  0
  6 16  1  0  0  0
  7 11  1  0  0  0
  8 12  1  0  0  0
  9 13  1  0  0  0
 10 14  1  0  0  0
M  END
>  <CHROM.0>
-60.82599115,178.63219204,58.02884595

>  <CHROM.1>
-166.98973890,-71.15671536,55.84607784,74.13015141,98.39725748,-90.87242104
100.75226595,-47.04220597,-0.71335156,16.94015449,0.86352140,-0.21380659
0.60326781

>  <HEADER>
                                                                          

>  <MASTER>
        0    0    0    0    0    0    0    0   36    0   36    0          

>  <Name>
Disulfiram.pdb

>  <RI>
-9.14787e+08

>  <Rbt.Current_Directory>
/root/miniconda3/envs/rdock/share/rxdock-2013.1.1_148c5bd1-0/data/ligands/prepped_ligands/Disulfiram

>  <Rbt.Executable>
rbdock/0.1.0

>  <Rbt.Library>
librxdock.so/0.1.0

>  <Rbt.Parameter_File>
/root/miniconda3/envs/rdock/share/rxdock-2013.1.1_148c5bd1-0/data/scripts/dock.prm

>  <Rbt.Receptor>
def.prm

>  <SCORE>
-6.55799

>  <SCORE.INTER>
-5.24801

>  <SCORE.INTER.CONST>
1

>  <SCORE.INTER.POLAR>
-0.871694

>  <SCORE.INTER.REPUL>
0

>  <SCORE.INTER.ROT>
7

>  <SCORE.INTER.VDW>
-14.6842

>  <SCORE.INTER.norm>
-0.328001

>  <SCORE.INTRA>
-0.233584

>  <SCORE.INTRA.DIHEDRAL>
-3.73873

>  <SCORE.INTRA.DIHEDRAL.0>
20.6363

>  <SCORE.INTRA.POLAR>
0

>  <SCORE.INTRA.POLAR.0>
0

>  <SCORE.INTRA.REPUL>
0

>  <SCORE.INTRA.REPUL.0>
0

>  <SCORE.INTRA.VDW>
1.63578

>  <SCORE.INTRA.VDW.0>
-2.69438

>  <SCORE.INTRA.norm>
-0.014599

>  <SCORE.RESTR>
0

>  <SCORE.RESTR.CAVITY>
0

>  <SCORE.RESTR.norm>
0

>  <SCORE.SYSTEM>
-1.0764

>  <SCORE.SYSTEM.CONST>
0

>  <SCORE.SYSTEM.DIHEDRAL>
0.0229057

>  <SCORE.SYSTEM.VDW>
-1.08785

>  <SCORE.SYSTEM.norm>
-0.0672751

>  <SCORE.heavy>
16

>  <SCORE.norm>
-0.409875

>  <TITLE>
    Disulfiram                                                            

$$$$
Disulfiram.pdb
  RxDock  02242109463D
librxdock.so/0.1.0
 16 15  0  0  0  0  0  0  0  0999 V2000
  -51.8873   -2.8530   17.4008 S   0  0  0  0  0  0
  -52.9989   -4.0066   18.6991 S   0  0  0  0  0  0
  -49.7770   -3.4101   19.4238 S   0  0  0  0  0  0
  -53.4429   -5.9209   16.4644 S   0  0  0  0  0  0
  -49.4142   -3.7310   16.7076 N   0  0  0  0  0  0
  -52.0731   -6.5587   18.7730 N   0  0  0  0  0  0
  -48.0326   -4.2065   16.8384 C   0  0  0  0  0  0
  -49.8736   -3.6475   15.3192 C   0  0  0  0  0  0
  -51.8038   -7.9215   18.3069 C   0  0  0  0  0  0
  -51.5038   -6.2692   20.0929 C   0  0  0  0  0  0
  -47.9721   -5.5459   17.5438 C   0  0  0  0  0  0
  -50.5379   -4.9342   14.8754 C   0  0  0  0  0  0
  -50.4312   -8.0317   17.6770 C   0  0  0  0  0  0
  -52.5473   -6.3851   21.1839 C   0  0  0  0  0  0
  -50.2332   -3.3670   17.7956 C   0  0  0  0  0  0
  -52.7948   -5.6274   17.9982 C   0  0  0  0  0  0
  1  2  1  0  0  0
  1 15  1  0  0  0
  2 16  1  0  0  0
  3 15  2  0  0  0
  4 16  2  0  0  0
  5  7  1  0  0  0
  5  8  1  0  0  0
  5 15  1  0  0  0
  6  9  1  0  0  0
  6 10  1  0  0  0
  6 16  1  0  0  0
  7 11  1  0  0  0
  8 12  1  0  0  0
  9 13  1  0  0  0
 10 14  1  0  0  0
M  END
>  <CHROM.0>
63.16047938,-62.52595909,-179.50149658

>  <CHROM.1>
-70.33187305,-48.74412449,-65.24252105,-114.83408446,91.18873350,-82.64429075
-99.35599494,-51.20222693,-4.90610121,17.86109581,0.60555401,-0.53215034
-1.29332751

>  <HEADER>
                                                                          

>  <MASTER>
        0    0    0    0    0    0    0    0   36    0   36    0          

>  <Name>
Disulfiram.pdb

>  <RI>
-9.14787e+08

>  <Rbt.Current_Directory>
/root/miniconda3/envs/rdock/share/rxdock-2013.1.1_148c5bd1-0/data/ligands/prepped_ligands/Disulfiram

>  <Rbt.Executable>
rbdock/0.1.0

>  <Rbt.Library>
librxdock.so/0.1.0

>  <Rbt.Parameter_File>
/root/miniconda3/envs/rdock/share/rxdock-2013.1.1_148c5bd1-0/data/scripts/dock.prm

>  <Rbt.Receptor>
def.prm

>  <SCORE>
-6.49767

>  <SCORE.INTER>
-2.26419

>  <SCORE.INTER.CONST>
1

>  <SCORE.INTER.POLAR>
0

>  <SCORE.INTER.REPUL>
0

>  <SCORE.INTER.ROT>
7

>  <SCORE.INTER.VDW>
-14.6642

>  <SCORE.INTER.norm>
-0.141512

>  <SCORE.INTRA>
-3.15704

>  <SCORE.INTRA.DIHEDRAL>
-4.89877

>  <SCORE.INTRA.DIHEDRAL.0>
20.6363

>  <SCORE.INTRA.POLAR>
0

>  <SCORE.INTRA.POLAR.0>
0

>  <SCORE.INTRA.REPUL>
0

>  <SCORE.INTRA.REPUL.0>
0

>  <SCORE.INTRA.VDW>
-0.707658

>  <SCORE.INTRA.VDW.0>
-2.69438

>  <SCORE.INTRA.norm>
-0.197315

>  <SCORE.RESTR>
0

>  <SCORE.RESTR.CAVITY>
0

>  <SCORE.RESTR.norm>
0

>  <SCORE.SYSTEM>
-1.07644

>  <SCORE.SYSTEM.CONST>
0

>  <SCORE.SYSTEM.DIHEDRAL>
0.0541112

>  <SCORE.SYSTEM.POLAR>
-0.00322322

>  <SCORE.SYSTEM.VDW>
-1.09254

>  <SCORE.SYSTEM.norm>
-0.0672775

>  <SCORE.heavy>
16

>  <SCORE.norm>
-0.406105

>  <TITLE>
    Disulfiram                                                            

$$$$
Disulfiram.pdb
  RxDock  02242109463D
librxdock.so/0.1.0
 16 15  0  0  0  0  0  0  0  0999 V2000
  -47.7215   -4.7449   17.3390 S   0  0  0  0  0  0
  -48.0405   -2.7654   16.8576 S   0  0  0  0  0  0
  -50.1662   -3.9642   18.8457 S   0  0  0  0  0  0
  -45.9228   -2.9626   14.7762 S   0  0  0  0  0  0
  -49.6636   -6.5325   17.9718 N   0  0  0  0  0  0
  -45.7283   -1.3487   17.0056 N   0  0  0  0  0  0
  -50.9204   -7.0744   18.5000 C   0  0  0  0  0  0
  -48.8242   -7.5383   17.3166 C   0  0  0  0  0  0
  -44.4139   -0.8447   16.5986 C   0  0  0  0  0  0
  -46.2156   -0.7650   18.2594 C   0  0  0  0  0  0
  -52.0766   -6.8119   17.5569 C   0  0  0  0  0  0
  -47.7416   -8.0486   18.2447 C   0  0  0  0  0  0
  -43.3139   -1.8306   16.9319 C   0  0  0  0  0  0
  -47.0446    0.4766   18.0071 C   0  0  0  0  0  0
  -49.2721   -5.1833   18.0871 C   0  0  0  0  0  0
  -46.4445   -2.2890   16.2365 C   0  0  0  0  0  0
  1  2  1  0  0  0
  1 15  1  0  0  0
  2 16  1  0  0  0
  3 15  2  0  0  0
  4 16  2  0  0  0
  5  7  1  0  0  0
  5  8  1  0  0  0
  5 15  1  0  0  0
  6  9  1  0  0  0
  6 10  1  0  0  0
  6 16  1  0  0  0
  7 11  1  0  0  0
  8 12  1  0  0  0
  9 13  1  0  0  0
 10 14  1  0  0  0
M  END
>  <CHROM.0>
178.86015843,-66.17496412,-57.95735396

>  <CHROM.1>
175.38641925,-27.85826486,68.04442062,-98.91011972,-98.15820043,101.23803807
91.13652447,-47.77432067,-3.82544070,17.30513075,-2.40446079,0.48467970,0.20761526

>  <HEADER>
                                                                          

>  <MASTER>
        0    0    0    0    0    0    0    0   36    0   36    0          

>  <Name>
Disulfiram.pdb

>  <RI>
-9.14787e+08

>  <Rbt.Current_Directory>
/root/miniconda3/envs/rdock/share/rxdock-2013.1.1_148c5bd1-0/data/ligands/prepped_ligands/Disulfiram

>  <Rbt.Executable>
rbdock/0.1.0

>  <Rbt.Library>
librxdock.so/0.1.0

>  <Rbt.Parameter_File>
/root/miniconda3/envs/rdock/share/rxdock-2013.1.1_148c5bd1-0/data/scripts/dock.prm

>  <Rbt.Receptor>
def.prm

>  <SCORE>
-6.7326

>  <SCORE.INTER>
-3.97517

>  <SCORE.INTER.CONST>
1

>  <SCORE.INTER.POLAR>
0

>  <SCORE.INTER.REPUL>
0.0877591

>  <SCORE.INTER.ROT>
7

>  <SCORE.INTER.VDW>
-16.814

>  <SCORE.INTER.norm>
-0.248448

>  <SCORE.INTRA>
-1.75401

>  <SCORE.INTRA.DIHEDRAL>
-6.5937

>  <SCORE.INTRA.DIHEDRAL.0>
20.6363

>  <SCORE.INTRA.POLAR>
0

>  <SCORE.INTRA.POLAR.0>
0

>  <SCORE.INTRA.REPUL>
0

>  <SCORE.INTRA.REPUL.0>
0

>  <SCORE.INTRA.VDW>
1.54283

>  <SCORE.INTRA.VDW.0>
-2.69438

>  <SCORE.INTRA.norm>
-0.109626

>  <SCORE.RESTR>
0

>  <SCORE.RESTR.CAVITY>
0

>  <SCORE.RESTR.norm>
0

>  <SCORE.SYSTEM>
-1.00342

>  <SCORE.SYSTEM.CONST>
0

>  <SCORE.SYSTEM.DIHEDRAL>
0.199401

>  <SCORE.SYSTEM.POLAR>
-0.0056947

>  <SCORE.SYSTEM.VDW>
-1.08376

>  <SCORE.SYSTEM.norm>
-0.0627136

>  <SCORE.heavy>
16

>  <SCORE.norm>
-0.420788

>  <TITLE>
    Disulfiram                                                            

$$$$
Disulfiram.pdb
  RxDock  02242109463D
librxdock.so/0.1.0
 16 15  0  0  0  0  0  0  0  0999 V2000
  -47.4914   -0.7989   16.7760 S   0  0  0  0  0  0
  -45.5623   -1.2683   17.3332 S   0  0  0  0  0  0
  -47.4514   -3.7729   16.6751 S   0  0  0  0  0  0
  -46.2331    1.4164   18.4278 S   0  0  0  0  0  0
  -48.9224   -2.2040   14.9468 N   0  0  0  0  0  0
  -43.7590    0.2274   18.7065 N   0  0  0  0  0  0
  -49.4926   -3.3455   14.2231 C   0  0  0  0  0  0
  -49.3598   -0.9062   14.4272 C   0  0  0  0  0  0
  -43.2363    1.3593   19.4765 C   0  0  0  0  0  0
  -42.7865   -0.8550   18.5253 C   0  0  0  0  0  0
  -50.5440   -4.0567   15.0503 C   0  0  0  0  0  0
  -48.3318   -0.3080   13.4894 C   0  0  0  0  0  0
  -42.6907    2.4426   18.5700 C   0  0  0  0  0  0
  -43.0079   -1.9716   19.5237 C   0  0  0  0  0  0
  -48.0254   -2.3194   16.0280 C   0  0  0  0  0  0
  -45.0807    0.1974   18.2160 C   0  0  0  0  0  0
  1  2  1  0  0  0
  1 15  1  0  0  0
  2 16  1  0  0  0
  3 15  2  0  0  0
  4 16  2  0  0  0
  5  7  1  0  0  0
  5  8  1  0  0  0
  5 15  1  0  0  0
  6  9  1  0  0  0
  6 10  1  0  0  0
  6 16  1  0  0  0
  7 11  1  0  0  0
  8 12  1  0  0  0
  9 13  1  0  0  0
 10 14  1  0  0  0
M  END
>  <CHROM.0>
59.46543680,178.22328399,179.87769987

>  <CHROM.1>
-174.91106762,34.58469236,3.38929864,-107.49864492,-98.05222399,94.64293886
98.72191366,-46.44357411,-1.03231438,16.99149679,2.72067755,0.64448799,3.07323426

>  <HEADER>
                                                                          

>  <MASTER>
        0    0    0    0    0    0    0    0   36    0   36    0          

>  <Name>
Disulfiram.pdb

>  <RI>
-9.14787e+08

>  <Rbt.Current_Directory>
/root/miniconda3/envs/rdock/share/rxdock-2013.1.1_148c5bd1-0/data/ligands/prepped_ligands/Disulfiram

>  <Rbt.Executable>
rbdock/0.1.0

>  <Rbt.Library>
librxdock.so/0.1.0

>  <Rbt.Parameter_File>
/root/miniconda3/envs/rdock/share/rxdock-2013.1.1_148c5bd1-0/data/scripts/dock.prm

>  <Rbt.Receptor>
def.prm

>  <SCORE>
-7.38844

>  <SCORE.INTER>
-4.03989

>  <SCORE.INTER.CONST>
1

>  <SCORE.INTER.POLAR>
0

>  <SCORE.INTER.REPUL>
0

>  <SCORE.INTER.ROT>
7

>  <SCORE.INTER.VDW>
-16.4399

>  <SCORE.INTER.norm>
-0.252493

>  <SCORE.INTRA>
-2.25127

>  <SCORE.INTRA.DIHEDRAL>
-9.6238

>  <SCORE.INTRA.DIHEDRAL.0>
20.6363

>  <SCORE.INTRA.POLAR>
0

>  <SCORE.INTRA.POLAR.0>
0

>  <SCORE.INTRA.REPUL>
0

>  <SCORE.INTRA.REPUL.0>
0

>  <SCORE.INTRA.VDW>
2.56063

>  <SCORE.INTRA.VDW.0>
-2.69438

>  <SCORE.INTRA.norm>
-0.140704

>  <SCORE.RESTR>
0

>  <SCORE.RESTR.CAVITY>
0

>  <SCORE.RESTR.norm>
0

>  <SCORE.SYSTEM>
-1.09728

>  <SCORE.SYSTEM.CONST>
0

>  <SCORE.SYSTEM.DIHEDRAL>
0.0170043

>  <SCORE.SYSTEM.POLAR>
-0.00167786

>  <SCORE.SYSTEM.VDW>
-1.10008

>  <SCORE.SYSTEM.norm>
-0.0685802

>  <SCORE.heavy>
16

>  <SCORE.norm>
-0.461778

>  <TITLE>
    Disulfiram                                                            

$$$$
Disulfiram.pdb
  RxDock  02242109463D
librxdock.so/0.1.0
 16 15  0  0  0  0  0  0  0  0999 V2000
  -50.1499   -2.2480   14.4735 S   0  0  0  0  0  0
  -52.0190   -3.1022   14.6433 S   0  0  0  0  0  0
  -50.9870   -0.7883   16.9280 S   0  0  0  0  0  0
  -50.0665   -5.1705   15.5180 S   0  0  0  0  0  0
  -48.6358   -2.2178   16.7261 N   0  0  0  0  0  0
  -52.7194   -5.1563   16.2759 N   0  0  0  0  0  0
  -48.2182   -1.9343   18.1036 C   0  0  0  0  0  0
  -47.6728   -3.0312   15.9801 C   0  0  0  0  0  0
  -52.5531   -6.3605   17.0941 C   0  0  0  0  0  0
  -54.0808   -4.6124   16.3063 C   0  0  0  0  0  0
  -49.1283   -2.6103   19.1086 C   0  0  0  0  0  0
  -46.6414   -2.1700   15.2813 C   0  0  0  0  0  0
  -52.0320   -6.0251   18.4758 C   0  0  0  0  0  0
  -54.9889   -5.3376   15.3356 C   0  0  0  0  0  0
  -49.8335   -1.7492   16.1490 C   0  0  0  0  0  0
  -51.6515   -4.5833   15.5550 C   0  0  0  0  0  0
  1  2  1  0  0  0
  1 15  1  0  0  0
  2 16  1  0  0  0
  3 15  2  0  0  0
  4 16  2  0  0  0
  5  7  1  0  0  0
  5  8  1  0  0  0
  5 15  1  0  0  0
  6  9  1  0  0  0
  6 10  1  0  0  0
  6 16  1  0  0  0
  7 11  1  0  0  0
  8 12  1  0  0  0
  9 13  1  0  0  0
 10 14  1  0  0  0
M  END
>  <CHROM.0>
57.17940897,-62.60874746,61.97872695

>  <CHROM.1>
-70.10640246,-53.36768473,-21.79121295,-113.42231767,-88.87987832,-94.86589354
-82.35947234,-50.73351269,-3.40004145,16.14967780,0.36090855,-0.50606921
-0.80924774

>  <HEADER>
                                                                          

>  <MASTER>
        0    0    0    0    0    0    0    0   36    0   36    0          

>  <Name>
Disulfiram.pdb

>  <RI>
-9.14787e+08

>  <Rbt.Current_Directory>
/root/miniconda3/envs/rdock/share/rxdock-2013.1.1_148c5bd1-0/data/ligands/prepped_ligands/Disulfiram

>  <Rbt.Executable>
rbdock/0.1.0

>  <Rbt.Library>
librxdock.so/0.1.0

>  <Rbt.Parameter_File>
/root/miniconda3/envs/rdock/share/rxdock-2013.1.1_148c5bd1-0/data/scripts/dock.prm

>  <Rbt.Receptor>
def.prm

>  <SCORE>
-9.60849

>  <SCORE.INTER>
-5.94316

>  <SCORE.INTER.CONST>
1

>  <SCORE.INTER.POLAR>
-0.586549

>  <SCORE.INTER.REPUL>
0

>  <SCORE.INTER.ROT>
7

>  <SCORE.INTER.VDW>
-16.3489

>  <SCORE.INTER.norm>
-0.371447

>  <SCORE.INTRA>
-2.64202

>  <SCORE.INTRA.DIHEDRAL>
-7.26166

>  <SCORE.INTRA.DIHEDRAL.0>
20.6363

>  <SCORE.INTRA.POLAR>
0

>  <SCORE.INTRA.POLAR.0>
0

>  <SCORE.INTRA.REPUL>
0

>  <SCORE.INTRA.REPUL.0>
0

>  <SCORE.INTRA.VDW>
0.988809

>  <SCORE.INTRA.VDW.0>
-2.69438

>  <SCORE.INTRA.norm>
-0.165126

>  <SCORE.RESTR>
0

>  <SCORE.RESTR.CAVITY>
0

>  <SCORE.RESTR.norm>
0

>  <SCORE.SYSTEM>
-1.02331

>  <SCORE.SYSTEM.CONST>
0

>  <SCORE.SYSTEM.DIHEDRAL>
0.0634442

>  <SCORE.SYSTEM.POLAR>
-0.00551676

>  <SCORE.SYSTEM.VDW>
-1.03628

>  <SCORE.SYSTEM.norm>
-0.063957

>  <SCORE.heavy>
16

>  <SCORE.norm>
-0.600531

>  <TITLE>
    Disulfiram                                                            

$$$$
Disulfiram.pdb
  RxDock  02242109463D
librxdock.so/0.1.0
 16 15  0  0  0  0  0  0  0  0999 V2000
  -47.8428   -4.0725   16.9116 S   0  0  0  0  0  0
  -49.4999   -4.7451   17.9381 S   0  0  0  0  0  0
  -49.8066   -1.8380   16.9899 S   0  0  0  0  0  0
  -47.3319   -6.7426   18.3444 S   0  0  0  0  0  0
  -47.6449   -1.9145   15.2772 N   0  0  0  0  0  0
  -49.9925   -7.2467   18.8733 N   0  0  0  0  0  0
  -47.9446   -0.6147   14.6665 C   0  0  0  0  0  0
  -46.4612   -2.5660   14.7114 C   0  0  0  0  0  0
  -49.7042   -8.6082   19.3322 C   0  0  0  0  0  0
  -51.4131   -6.8921   18.9516 C   0  0  0  0  0  0
  -49.1447   -0.6988   13.7457 C   0  0  0  0  0  0
  -45.1890   -2.0780   15.3724 C   0  0  0  0  0  0
  -49.1489   -9.4649   18.2138 C   0  0  0  0  0  0
  -52.0732   -6.9450   17.5899 C   0  0  0  0  0  0
  -48.4162   -2.5072   16.2973 C   0  0  0  0  0  0
  -48.9800   -6.3739   18.4243 C   0  0  0  0  0  0
  1  2  1  0  0  0
  1 15  1  0  0  0
  2 16  1  0  0  0
  3 15  2  0  0  0
  4 16  2  0  0  0
  5  7  1  0  0  0
  5  8  1  0  0  0
  5 15  1  0  0  0
  6  9  1  0  0  0
  6 10  1  0  0  0
  6 16  1  0  0  0
  7 11  1  0  0  0
  8 12  1  0  0  0
  9 13  1  0  0  0
 10 14  1  0  0  0
M  END
>  <CHROM.0>
62.74530143,61.43318726,-64.29554604

>  <CHROM.1>
174.97636365,16.04058651,16.04575402,105.97968259,84.73019887,116.84881950
-102.79560061,-48.74912635,-4.53010937,17.10039188,-1.30084962,-0.17404097
2.67909238

>  <HEADER>
                                                                          

>  <MASTER>
        0    0    0    0    0    0    0    0   36    0   36    0          

>  <Name>
Disulfiram.pdb

>  <RI>
-9.14787e+08

>  <Rbt.Current_Directory>
/root/miniconda3/envs/rdock/share/rxdock-2013.1.1_148c5bd1-0/data/ligands/prepped_ligands/Disulfiram

>  <Rbt.Executable>
rbdock/0.1.0

>  <Rbt.Library>
librxdock.so/0.1.0

>  <Rbt.Parameter_File>
/root/miniconda3/envs/rdock/share/rxdock-2013.1.1_148c5bd1-0/data/scripts/dock.prm

>  <Rbt.Receptor>
def.prm

>  <SCORE>
-6.55092

>  <SCORE.INTER>
-3.7265

>  <SCORE.INTER.CONST>
1

>  <SCORE.INTER.POLAR>
-0.0330504

>  <SCORE.INTER.REPUL>
0

>  <SCORE.INTER.ROT>
7

>  <SCORE.INTER.VDW>
-16.0141

>  <SCORE.INTER.norm>
-0.232906

>  <SCORE.INTRA>
-1.84932

>  <SCORE.INTRA.DIHEDRAL>
-10.4035

>  <SCORE.INTRA.DIHEDRAL.0>
20.6363

>  <SCORE.INTRA.POLAR>
0

>  <SCORE.INTRA.POLAR.0>
0

>  <SCORE.INTRA.REPUL>
0

>  <SCORE.INTRA.REPUL.0>
0

>  <SCORE.INTRA.VDW>
3.35243

>  <SCORE.INTRA.VDW.0>
-2.69438

>  <SCORE.INTRA.norm>
-0.115583

>  <SCORE.RESTR>
0

>  <SCORE.RESTR.CAVITY>
0

>  <SCORE.RESTR.norm>
0

>  <SCORE.SYSTEM>
-0.975101

>  <SCORE.SYSTEM.CONST>
0

>  <SCORE.SYSTEM.DIHEDRAL>
0.0756807

>  <SCORE.SYSTEM.VDW>
-1.01294

>  <SCORE.SYSTEM.norm>
-0.0609438

>  <SCORE.heavy>
16

>  <SCORE.norm>
-0.409432

>  <TITLE>
    Disulfiram                                                            

$$$$
Disulfiram.pdb
  RxDock  02242109463D
librxdock.so/0.1.0
 16 15  0  0  0  0  0  0  0  0999 V2000
  -50.4969   -1.4194   16.2714 S   0  0  0  0  0  0
  -52.0916   -2.7170   16.1119 S   0  0  0  0  0  0
  -49.4138   -3.8445   14.9289 S   0  0  0  0  0  0
  -50.6776   -3.7803   18.5048 S   0  0  0  0  0  0
  -47.8786   -2.1161   16.4349 N   0  0  0  0  0  0
  -51.8472   -5.3801   16.5851 N   0  0  0  0  0  0
  -46.6325   -2.8585   16.2150 C   0  0  0  0  0  0
  -47.7127   -0.9375   17.2889 C   0  0  0  0  0  0
  -51.4686   -6.6065   17.2920 C   0  0  0  0  0  0
  -52.6013   -5.6255   15.3517 C   0  0  0  0  0  0
  -45.9580   -2.4388   14.9250 C   0  0  0  0  0  0
  -48.1599   -1.2132   18.7094 C   0  0  0  0  0  0
  -52.1724   -6.7166   18.6283 C   0  0  0  0  0  0
  -54.0934   -5.5102   15.5823 C   0  0  0  0  0  0
  -49.1286   -2.4906   15.9019 C   0  0  0  0  0  0
  -51.5236   -4.0983   17.0759 C   0  0  0  0  0  0
  1  2  1  0  0  0
  1 15  1  0  0  0
  2 16  1  0  0  0
  3 15  2  0  0  0
  4 16  2  0  0  0
  5  7  1  0  0  0
  5  8  1  0  0  0
  5 15  1  0  0  0
  6  9  1  0  0  0
  6 10  1  0  0  0
  6 16  1  0  0  0
  7 11  1  0  0  0
  8 12  1  0  0  0
  9 13  1  0  0  0
 10 14  1  0  0  0
M  END
>  <CHROM.0>
-173.73473908,65.08293801,60.69947745

>  <CHROM.1>
48.03754455,26.46488268,39.65316394,-95.20616073,-100.33889956,-113.84391670
96.66017143,-50.24767614,-3.45592514,16.58078615,0.06107945,0.62804228,1.36367562

>  <HEADER>
                                                                          

>  <MASTER>
        0    0    0    0    0    0    0    0   36    0   36    0          

>  <Name>
Disulfiram.pdb

>  <RI>
-9.14787e+08

>  <Rbt.Current_Directory>
/root/miniconda3/envs/rdock/share/rxdock-2013.1.1_148c5bd1-0/data/ligands/prepped_ligands/Disulfiram

>  <Rbt.Executable>
rbdock/0.1.0

>  <Rbt.Library>
librxdock.so/0.1.0

>  <Rbt.Parameter_File>
/root/miniconda3/envs/rdock/share/rxdock-2013.1.1_148c5bd1-0/data/scripts/dock.prm

>  <Rbt.Receptor>
def.prm

>  <SCORE>
-4.77062

>  <SCORE.INTER>
-0.803852

>  <SCORE.INTER.CONST>
1

>  <SCORE.INTER.POLAR>
0

>  <SCORE.INTER.REPUL>
0.00470525

>  <SCORE.INTER.ROT>
7

>  <SCORE.INTER.VDW>
-13.2274

>  <SCORE.INTER.norm>
-0.0502408

>  <SCORE.INTRA>
-3.02505

>  <SCORE.INTRA.DIHEDRAL>
-7.85927

>  <SCORE.INTRA.DIHEDRAL.0>
20.6363

>  <SCORE.INTRA.POLAR>
0

>  <SCORE.INTRA.POLAR.0>
0

>  <SCORE.INTRA.REPUL>
0

>  <SCORE.INTRA.REPUL.0>
0

>  <SCORE.INTRA.VDW>
0.904586

>  <SCORE.INTRA.VDW.0>
-2.69438

>  <SCORE.INTRA.norm>
-0.189066

>  <SCORE.RESTR>
0

>  <SCORE.RESTR.CAVITY>
0

>  <SCORE.RESTR.norm>
0

>  <SCORE.SYSTEM>
-0.941719

>  <SCORE.SYSTEM.CONST>
0

>  <SCORE.SYSTEM.DIHEDRAL>
0.219019

>  <SCORE.SYSTEM.POLAR>
-0.0027201

>  <SCORE.SYSTEM.VDW>
-1.04198

>  <SCORE.SYSTEM.norm>
-0.0588574

>  <SCORE.heavy>
16

>  <SCORE.norm>
-0.298164

>  <TITLE>
    Disulfiram                                                            

$$$$
Disulfiram.pdb
  RxDock  02242109463D
librxdock.so/0.1.0
 16 15  0  0  0  0  0  0  0  0999 V2000
  -47.1089   -0.4234   15.3205 S   0  0  0  0  0  0
  -47.2873   -2.2731   14.4267 S   0  0  0  0  0  0
  -44.2404   -1.2157   15.3006 S   0  0  0  0  0  0
  -46.2400   -3.3632   16.9900 S   0  0  0  0  0  0
  -45.5151   -0.1428   17.4997 N   0  0  0  0  0  0
  -48.6818   -4.0664   15.9150 N   0  0  0  0  0  0
  -44.3157   -0.1698   18.3439 C   0  0  0  0  0  0
  -46.7007    0.3752   18.1866 C   0  0  0  0  0  0
  -48.9863   -4.9567   17.0383 C   0  0  0  0  0  0
  -49.7495   -4.0051   14.9118 C   0  0  0  0  0  0
  -43.6390    1.1849   18.3884 C   0  0  0  0  0  0
  -47.5485   -0.7447   18.7528 C   0  0  0  0  0  0
  -49.4506   -4.1797   18.2523 C   0  0  0  0  0  0
  -50.6053   -2.7685   15.0883 C   0  0  0  0  0  0
  -45.5521   -0.5836   16.1613 C   0  0  0  0  0  0
  -47.4792   -3.3338   15.8402 C   0  0  0  0  0  0
  1  2  1  0  0  0
  1 15  1  0  0  0
  2 16  1  0  0  0
  3 15  2  0  0  0
  4 16  2  0  0  0
  5  7  1  0  0  0
  5  8  1  0  0  0
  5 15  1  0  0  0
  6  9  1  0  0  0
  6 10  1  0  0  0
  6 16  1  0  0  0
  7 11  1  0  0  0
  8 12  1  0  0  0
  9 13  1  0  0  0
 10 14  1  0  0  0
M  END
>  <CHROM.0>
62.49142907,64.14976844,-61.92808240

>  <CHROM.1>
66.97063333,47.51894216,-59.60846610,-82.31217264,-95.56996975,-100.64930228
99.67926338,-46.87971224,-1.88832208,16.39534233,-0.28724515,-0.68864070
-1.67481853

>  <HEADER>
                                                                          

>  <MASTER>
        0    0    0    0    0    0    0    0   36    0   36    0          

>  <Name>
Disulfiram.pdb

>  <RI>
-9.14787e+08

>  <Rbt.Current_Directory>
/root/miniconda3/envs/rdock/share/rxdock-2013.1.1_148c5bd1-0/data/ligands/prepped_ligands/Disulfiram

>  <Rbt.Executable>
rbdock/0.1.0

>  <Rbt.Library>
librxdock.so/0.1.0

>  <Rbt.Parameter_File>
/root/miniconda3/envs/rdock/share/rxdock-2013.1.1_148c5bd1-0/data/scripts/dock.prm

>  <Rbt.Receptor>
def.prm

>  <SCORE>
-9.54961

>  <SCORE.INTER>
-6.04518

>  <SCORE.INTER.CONST>
1

>  <SCORE.INTER.POLAR>
-0.334133

>  <SCORE.INTER.REPUL>
0

>  <SCORE.INTER.ROT>
7

>  <SCORE.INTER.VDW>
-17.3091

>  <SCORE.INTER.norm>
-0.377824

>  <SCORE.INTRA>
-2.50176

>  <SCORE.INTRA.DIHEDRAL>
-5.52103

>  <SCORE.INTRA.DIHEDRAL.0>
20.6363

>  <SCORE.INTRA.POLAR>
0

>  <SCORE.INTRA.POLAR.0>
0

>  <SCORE.INTRA.REPUL>
0

>  <SCORE.INTRA.REPUL.0>
0

>  <SCORE.INTRA.VDW>
0.258756

>  <SCORE.INTRA.VDW.0>
-2.69438

>  <SCORE.INTRA.norm>
-0.15636

>  <SCORE.RESTR>
0

>  <SCORE.RESTR.CAVITY>
0

>  <SCORE.RESTR.norm>
0

>  <SCORE.SYSTEM>
-1.00266

>  <SCORE.SYSTEM.CONST>
0

>  <SCORE.SYSTEM.DIHEDRAL>
0.109038

>  <SCORE.SYSTEM.VDW>
-1.05718

>  <SCORE.SYSTEM.norm>
-0.0626664

>  <SCORE.heavy>
16

>  <SCORE.norm>
-0.59685

>  <TITLE>
    Disulfiram                                                            

$$$$
