Hydroxychloroquine.pdb
  RxDock  02242101213D
librxdock.so/0.1.0
 26 27  0  0  0  0  0  0  0  0999 V2000
  -50.1968   -8.9010   18.7376 Cl  0  0  0  0  0  0
  -45.8732   -2.9192   17.5925 O   0  0  0  0  0  0
  -46.9169   -0.3602   17.2203 N   0  3  0  0  0  0
  -51.8773   -3.5512   14.9303 N   0  0  0  0  0  0
  -54.1871   -6.7019   16.5735 N   0  0  0  0  0  0
  -50.0133   -1.9794   15.5427 C   0  0  0  0  0  0
  -48.5960   -1.9572   16.1380 C   0  0  0  0  0  0
  -50.4205   -3.4070   15.1349 C   0  0  0  0  0  0
  -48.2031   -0.4959   16.4405 C   0  0  0  0  0  0
  -45.7076   -0.7876   16.4208 C   0  0  0  0  0  0
  -49.7794   -3.7049   13.7695 C   0  0  0  0  0  0
  -46.7522    1.0182   17.8188 C   0  0  0  0  0  0
  -52.6358   -4.5975   15.4691 C   0  0  0  0  0  0
  -45.5378   -2.3177   16.3337 C   0  0  0  0  0  0
  -47.8178    1.3496   18.8828 C   0  0  0  0  0  0
  -52.0242   -5.6152   16.2243 C   0  0  0  0  0  0
  -53.9938   -4.6766   15.2915 C   0  0  0  0  0  0
  -52.8358   -6.6312   16.7558 C   0  0  0  0  0  0
  -50.6361   -5.6473   16.4825 C   0  0  0  0  0  0
  -54.7191   -5.7159   15.8408 C   0  0  0  0  0  0
  -52.2392   -7.6449   17.5346 C   0  0  0  0  0  0
  -50.0945   -6.6327   17.2320 C   0  0  0  0  0  0
  -50.9075   -7.6453   17.7678 C   0  0  0  0  0  0
  -45.7775   -3.9199   17.5564 H   0  0  0  0  0  0
  -46.9822   -0.9381   17.9214 H   0  0  0  0  0  0
  -52.3098   -2.8487   14.6238 H   0  0  0  0  0  0
  1 23  1  0  0  0
  2 14  1  0  0  0
  2 24  1  0  0  0
  3  9  1  0  0  0
  3 10  1  0  0  0
  3 12  1  0  0  0
  3 25  1  0  0  0
  4  8  1  0  0  0
  4 13  1  0  0  0
  4 26  1  0  0  0
  5 18  2  0  0  0
  5 20  1  0  0  0
  6  7  1  0  0  0
  6  8  1  0  0  0
  7  9  1  0  0  0
  8 11  1  0  0  0
 10 14  1  0  0  0
 12 15  1  0  0  0
 13 16  2  0  0  0
 13 17  1  0  0  0
 16 18  1  0  0  0
 16 19  1  0  0  0
 17 20  2  0  0  0
 18 21  1  0  0  0
 19 22  2  0  0  0
 21 23  2  0  0  0
 22 23  1  0  0  0
M  END
>  <CHROM.0>
-178.25235124,-62.22769356,178.67862532

>  <CHROM.1>
179.48045852,67.60031633,-77.92987879,64.78867151,-132.60839735,-1.82982879
176.24271239,163.37301816,171.25294970,-39.18819567,-49.96153022,-4.09264763
16.67906727,-2.34124616,-0.42283664,-0.36494741

>  <HEADER>
                                                                          

>  <MASTER>
        0    0    0    0    0    0    0    0   50    0   50    0          

>  <Name>
Hydroxychloroquine.pdb

>  <RI>
-4.06035e+08

>  <Rbt.Current_Directory>
/root/miniconda3/envs/rdock/share/rxdock-2013.1.1_148c5bd1-0/data/ligands/prepped_ligands/Hydroxychloroquine

>  <Rbt.Executable>
rbdock/0.1.0

>  <Rbt.Library>
librxdock.so/0.1.0

>  <Rbt.Parameter_File>
/root/miniconda3/envs/rdock/share/rxdock-2013.1.1_148c5bd1-0/data/scripts/dock.prm

>  <Rbt.Receptor>
def.prm

>  <SCORE>
-17.0172

>  <SCORE.INTER>
-8.11473

>  <SCORE.INTER.CONST>
1

>  <SCORE.INTER.POLAR>
-0.4666

>  <SCORE.INTER.REPUL>
0

>  <SCORE.INTER.ROT>
9

>  <SCORE.INTER.VDW>
-20.9283

>  <SCORE.INTER.norm>
-0.352814

>  <SCORE.INTRA>
-7.81781

>  <SCORE.INTRA.DIHEDRAL>
-19.5819

>  <SCORE.INTRA.DIHEDRAL.0>
26.0734

>  <SCORE.INTRA.POLAR>
-0.24281

>  <SCORE.INTRA.POLAR.0>
0

>  <SCORE.INTRA.REPUL>
0

>  <SCORE.INTRA.REPUL.0>
0

>  <SCORE.INTRA.VDW>
2.7987

>  <SCORE.INTRA.VDW.0>
1.41869

>  <SCORE.INTRA.norm>
-0.339905

>  <SCORE.RESTR>
0

>  <SCORE.RESTR.CAVITY>
0

>  <SCORE.RESTR.norm>
0

>  <SCORE.SYSTEM>
-1.08462

>  <SCORE.SYSTEM.CONST>
0

>  <SCORE.SYSTEM.DIHEDRAL>
0.0362864

>  <SCORE.SYSTEM.VDW>
-1.10276

>  <SCORE.SYSTEM.norm>
-0.0471573

>  <SCORE.heavy>
23

>  <SCORE.norm>
-0.739876

>  <TITLE>
    3652_D                                                                

$$$$
Hydroxychloroquine.pdb
  RxDock  02242101213D
librxdock.so/0.1.0
 26 27  0  0  0  0  0  0  0  0999 V2000
  -48.2907    0.4592   20.6260 Cl  0  0  0  0  0  0
  -54.4828   -4.8373   16.8989 O   0  0  0  0  0  0
  -52.0814   -3.0562   16.0156 N   0  3  0  0  0  0
  -47.3400   -0.5700   13.9945 N   0  0  0  0  0  0
  -44.6590   -0.5589   17.2769 N   0  0  0  0  0  0
  -49.2807   -2.0923   13.5088 C   0  0  0  0  0  0
  -50.7175   -2.4179   13.9484 C   0  0  0  0  0  0
  -48.7986   -0.7679   14.1284 C   0  0  0  0  0  0
  -50.7388   -2.6217   15.4779 C   0  0  0  0  0  0
  -52.4083   -4.4899   15.6662 C   0  0  0  0  0  0
  -49.4464    0.3816   13.3391 C   0  0  0  0  0  0
  -52.2236   -2.7786   17.4948 C   0  0  0  0  0  0
  -46.4564   -0.5586   15.0806 C   0  0  0  0  0  0
  -53.9217   -4.7718   15.5799 C   0  0  0  0  0  0
  -51.2615   -3.6125   18.3644 C   0  0  0  0  0  0
  -46.9198   -0.2942   16.3827 C   0  0  0  0  0  0
  -45.1155   -0.8053   14.9288 C   0  0  0  0  0  0
  -45.9923   -0.3126   17.4377 C   0  0  0  0  0  0
  -48.2762   -0.0287   16.6729 C   0  0  0  0  0  0
  -44.2672   -0.7954   16.0189 C   0  0  0  0  0  0
  -46.4470   -0.0724   18.7513 C   0  0  0  0  0  0
  -48.6804    0.1983   17.9422 C   0  0  0  0  0  0
  -47.7534    0.1742   18.9974 C   0  0  0  0  0  0
  -54.4057   -3.9535   17.3732 H   0  0  0  0  0  0
  -52.7030   -2.5386   15.5966 H   0  0  0  0  0  0
  -46.9963   -0.6586   13.1892 H   0  0  0  0  0  0
  1 23  1  0  0  0
  2 14  1  0  0  0
  2 24  1  0  0  0
  3  9  1  0  0  0
  3 10  1  0  0  0
  3 12  1  0  0  0
  3 25  1  0  0  0
  4  8  1  0  0  0
  4 13  1  0  0  0
  4 26  1  0  0  0
  5 18  2  0  0  0
  5 20  1  0  0  0
  6  7  1  0  0  0
  6  8  1  0  0  0
  7  9  1  0  0  0
  8 11  1  0  0  0
 10 14  1  0  0  0
 12 15  1  0  0  0
 13 16  2  0  0  0
 13 17  1  0  0  0
 16 18  1  0  0  0
 16 19  1  0  0  0
 17 20  2  0  0  0
 18 21  1  0  0  0
 19 22  2  0  0  0
 21 23  2  0  0  0
 22 23  1  0  0  0
M  END
>  <CHROM.0>
52.50201966,179.29311090,153.27887454

>  <CHROM.1>
63.85481976,72.42648578,-152.68006205,-65.87438319,-113.18257251,-21.28858796
-63.22055665,166.71290237,-175.40071171,-75.18424532,-49.04681944,-1.44239731
16.53447241,0.24434634,0.49028898,1.39720844

>  <HEADER>
                                                                          

>  <MASTER>
        0    0    0    0    0    0    0    0   50    0   50    0          

>  <Name>
Hydroxychloroquine.pdb

>  <RI>
-4.06035e+08

>  <Rbt.Current_Directory>
/root/miniconda3/envs/rdock/share/rxdock-2013.1.1_148c5bd1-0/data/ligands/prepped_ligands/Hydroxychloroquine

>  <Rbt.Executable>
rbdock/0.1.0

>  <Rbt.Library>
librxdock.so/0.1.0

>  <Rbt.Parameter_File>
/root/miniconda3/envs/rdock/share/rxdock-2013.1.1_148c5bd1-0/data/scripts/dock.prm

>  <Rbt.Receptor>
def.prm

>  <SCORE>
-20.4298

>  <SCORE.INTER>
-13.1918

>  <SCORE.INTER.CONST>
1

>  <SCORE.INTER.POLAR>
-2.12772

>  <SCORE.INTER.REPUL>
0

>  <SCORE.INTER.ROT>
9

>  <SCORE.INTER.VDW>
-20.3575

>  <SCORE.INTER.norm>
-0.573555

>  <SCORE.INTRA>
-7.1832

>  <SCORE.INTRA.DIHEDRAL>
-19.158

>  <SCORE.INTRA.DIHEDRAL.0>
26.0734

>  <SCORE.INTRA.POLAR>
0

>  <SCORE.INTRA.POLAR.0>
0

>  <SCORE.INTRA.REPUL>
0

>  <SCORE.INTRA.REPUL.0>
0

>  <SCORE.INTRA.VDW>
2.39579

>  <SCORE.INTRA.VDW.0>
1.41869

>  <SCORE.INTRA.norm>
-0.312313

>  <SCORE.RESTR>
0

>  <SCORE.RESTR.CAVITY>
0

>  <SCORE.RESTR.norm>
0

>  <SCORE.SYSTEM>
-0.0548102

>  <SCORE.SYSTEM.CONST>
0

>  <SCORE.SYSTEM.DIHEDRAL>
1.65275

>  <SCORE.SYSTEM.VDW>
-0.881185

>  <SCORE.SYSTEM.norm>
-0.00238305

>  <SCORE.heavy>
23

>  <SCORE.norm>
-0.888251

>  <TITLE>
    3652_D                                                                

$$$$
Hydroxychloroquine.pdb
  RxDock  02242101213D
librxdock.so/0.1.0
 26 27  0  0  0  0  0  0  0  0999 V2000
  -43.9806   -1.5553   15.2428 Cl  0  0  0  0  0  0
  -52.7693   -2.8924   14.1358 O   0  0  0  0  0  0
  -52.2332   -2.7358   17.8612 N   0  3  0  0  0  0
  -47.7006   -0.7277   20.8479 N   0  0  0  0  0  0
  -43.5537   -1.3808   20.2657 N   0  0  0  0  0  0
  -49.6933   -0.3316   19.3673 C   0  0  0  0  0  0
  -50.4300   -0.9481   18.1669 C   0  0  0  0  0  0
  -48.7579   -1.3590   20.0303 C   0  0  0  0  0  0
  -51.7731   -1.5337   18.6511 C   0  0  0  0  0  0
  -51.8874   -2.6308   16.3936 C   0  0  0  0  0  0
  -49.5981   -2.1923   21.0120 C   0  0  0  0  0  0
  -51.7625   -4.0366   18.4709 C   0  0  0  0  0  0
  -46.3323   -0.9505   20.6517 C   0  0  0  0  0  0
  -52.8622   -3.3960   15.4762 C   0  0  0  0  0  0
  -52.5887   -5.2555   18.0139 C   0  0  0  0  0  0
  -45.8075   -1.1097   19.3558 C   0  0  0  0  0  0
  -45.4499   -1.0193   21.6998 C   0  0  0  0  0  0
  -44.4245   -1.3134   19.2163 C   0  0  0  0  0  0
  -46.6087   -1.0566   18.1940 C   0  0  0  0  0  0
  -44.1034   -1.2324   21.4773 C   0  0  0  0  0  0
  -43.8815   -1.4511   17.9216 C   0  0  0  0  0  0
  -46.0584   -1.1929   16.9673 C   0  0  0  0  0  0
  -44.6746   -1.3909   16.8283 C   0  0  0  0  0  0
  -53.5369   -3.2138   13.5706 H   0  0  0  0  0  0
  -53.1426   -2.7421   17.9139 H   0  0  0  0  0  0
  -47.9356   -0.0400   21.3442 H   0  0  0  0  0  0
  1 23  1  0  0  0
  2 14  1  0  0  0
  2 24  1  0  0  0
  3  9  1  0  0  0
  3 10  1  0  0  0
  3 12  1  0  0  0
  3 25  1  0  0  0
  4  8  1  0  0  0
  4 13  1  0  0  0
  4 26  1  0  0  0
  5 18  2  0  0  0
  5 20  1  0  0  0
  6  7  1  0  0  0
  6  8  1  0  0  0
  7  9  1  0  0  0
  8 11  1  0  0  0
 10 14  1  0  0  0
 12 15  1  0  0  0
 13 16  2  0  0  0
 13 17  1  0  0  0
 16 18  1  0  0  0
 16 19  1  0  0  0
 17 20  2  0  0  0
 18 21  1  0  0  0
 19 22  2  0  0  0
 21 23  2  0  0  0
 22 23  1  0  0  0
M  END
>  <CHROM.0>
67.05064045,-65.28791531,-179.07804346

>  <CHROM.1>
-166.43568071,-35.93526494,-151.73723765,159.79898024,-123.61516071,36.65033461
91.54358596,159.65636294,-149.10088869,160.03269448,-48.04836708,-1.84135931
18.26817368,-0.24587769,-0.19968299,-1.71600946

>  <HEADER>
                                                                          

>  <MASTER>
        0    0    0    0    0    0    0    0   50    0   50    0          

>  <Name>
Hydroxychloroquine.pdb

>  <RI>
-4.06035e+08

>  <Rbt.Current_Directory>
/root/miniconda3/envs/rdock/share/rxdock-2013.1.1_148c5bd1-0/data/ligands/prepped_ligands/Hydroxychloroquine

>  <Rbt.Executable>
rbdock/0.1.0

>  <Rbt.Library>
librxdock.so/0.1.0

>  <Rbt.Parameter_File>
/root/miniconda3/envs/rdock/share/rxdock-2013.1.1_148c5bd1-0/data/scripts/dock.prm

>  <Rbt.Receptor>
def.prm

>  <SCORE>
-9.54599

>  <SCORE.INTER>
-8.16076

>  <SCORE.INTER.CONST>
1

>  <SCORE.INTER.POLAR>
-1.8898

>  <SCORE.INTER.REPUL>
0

>  <SCORE.INTER.ROT>
9

>  <SCORE.INTER.VDW>
-16.1355

>  <SCORE.INTER.norm>
-0.354816

>  <SCORE.INTRA>
-0.399832

>  <SCORE.INTRA.DIHEDRAL>
-4.43871

>  <SCORE.INTRA.DIHEDRAL.0>
26.0734

>  <SCORE.INTRA.POLAR>
0

>  <SCORE.INTRA.POLAR.0>
0

>  <SCORE.INTRA.REPUL>
0

>  <SCORE.INTRA.REPUL.0>
0

>  <SCORE.INTRA.VDW>
1.81953

>  <SCORE.INTRA.VDW.0>
1.41869

>  <SCORE.INTRA.norm>
-0.017384

>  <SCORE.RESTR>
0

>  <SCORE.RESTR.CAVITY>
0

>  <SCORE.RESTR.norm>
0

>  <SCORE.SYSTEM>
-0.985398

>  <SCORE.SYSTEM.CONST>
0

>  <SCORE.SYSTEM.DIHEDRAL>
0.254826

>  <SCORE.SYSTEM.POLAR>
-0.00422724

>  <SCORE.SYSTEM.VDW>
-1.09844

>  <SCORE.SYSTEM.norm>
-0.0428434

>  <SCORE.heavy>
23

>  <SCORE.norm>
-0.415043

>  <TITLE>
    3652_D                                                                

$$$$
Hydroxychloroquine.pdb
  RxDock  02242101213D
librxdock.so/0.1.0
 26 27  0  0  0  0  0  0  0  0999 V2000
  -54.4383   -5.4092   15.5432 Cl  0  0  0  0  0  0
  -44.0096   -2.2280   13.8727 O   0  0  0  0  0  0
  -44.9770   -1.3602   17.4268 N   0  3  0  0  0  0
  -50.1016   -0.5978   17.5392 N   0  0  0  0  0  0
  -51.2822   -1.9357   13.6949 N   0  0  0  0  0  0
  -48.1357    0.2569   18.8524 C   0  0  0  0  0  0
  -47.2691   -0.9597   18.4885 C   0  0  0  0  0  0
  -49.1821    0.5385   17.7589 C   0  0  0  0  0  0
  -46.2456   -0.5411   17.4120 C   0  0  0  0  0  0
  -44.2306   -1.2948   16.1142 C   0  0  0  0  0  0
  -50.0666    1.6985   18.2447 C   0  0  0  0  0  0
  -44.0935   -1.0271   18.6075 C   0  0  0  0  0  0
  -50.4890   -1.0474   16.2711 C   0  0  0  0  0  0
  -44.9114   -2.0868   14.9799 C   0  0  0  0  0  0
  -43.0130   -2.0935   18.8772 C   0  0  0  0  0  0
  -51.4141   -2.0985   16.1315 C   0  0  0  0  0  0
  -49.9941   -0.4889   15.1199 C   0  0  0  0  0  0
  -51.7804   -2.4975   14.8353 C   0  0  0  0  0  0
  -51.9993   -2.7544   17.2369 C   0  0  0  0  0  0
  -50.3994   -0.9467   13.8813 C   0  0  0  0  0  0
  -52.7246   -3.5341   14.6808 C   0  0  0  0  0  0
  -52.9007   -3.7448   17.0558 C   0  0  0  0  0  0
  -53.2706   -4.1394   15.7594 C   0  0  0  0  0  0
  -43.1824   -2.7355   14.1375 H   0  0  0  0  0  0
  -45.2350   -2.2270   17.5359 H   0  0  0  0  0  0
  -50.2526   -1.1287   18.2246 H   0  0  0  0  0  0
  1 23  1  0  0  0
  2 14  1  0  0  0
  2 24  1  0  0  0
  3  9  1  0  0  0
  3 10  1  0  0  0
  3 12  1  0  0  0
  3 25  1  0  0  0
  4  8  1  0  0  0
  4 13  1  0  0  0
  4 26  1  0  0  0
  5 18  2  0  0  0
  5 20  1  0  0  0
  6  7  1  0  0  0
  6  8  1  0  0  0
  7  9  1  0  0  0
  8 11  1  0  0  0
 10 14  1  0  0  0
 12 15  1  0  0  0
 13 16  2  0  0  0
 13 17  1  0  0  0
 16 18  1  0  0  0
 16 19  1  0  0  0
 17 20  2  0  0  0
 18 21  1  0  0  0
 19 22  2  0  0  0
 21 23  2  0  0  0
 22 23  1  0  0  0
M  END
>  <CHROM.0>
62.32522529,61.40908020,176.54526454

>  <CHROM.1>
61.23973580,159.27904642,-72.68399905,163.66382109,-136.63180603,-177.19773392
76.16960817,59.81888562,152.76433929,-167.07437615,-49.16901586,-1.87934605
16.41861838,-2.80709957,0.09044943,0.81202333

>  <HEADER>
                                                                          

>  <MASTER>
        0    0    0    0    0    0    0    0   50    0   50    0          

>  <Name>
Hydroxychloroquine.pdb

>  <RI>
-4.06035e+08

>  <Rbt.Current_Directory>
/root/miniconda3/envs/rdock/share/rxdock-2013.1.1_148c5bd1-0/data/ligands/prepped_ligands/Hydroxychloroquine

>  <Rbt.Executable>
rbdock/0.1.0

>  <Rbt.Library>
librxdock.so/0.1.0

>  <Rbt.Parameter_File>
/root/miniconda3/envs/rdock/share/rxdock-2013.1.1_148c5bd1-0/data/scripts/dock.prm

>  <Rbt.Receptor>
def.prm

>  <SCORE>
-21.6172

>  <SCORE.INTER>
-10.5841

>  <SCORE.INTER.CONST>
1

>  <SCORE.INTER.POLAR>
-0.0109496

>  <SCORE.INTER.REPUL>
0.00686216

>  <SCORE.INTER.ROT>
9

>  <SCORE.INTER.VDW>
-24.9812

>  <SCORE.INTER.norm>
-0.460179

>  <SCORE.INTRA>
-10.0333

>  <SCORE.INTRA.DIHEDRAL>
-18.1705

>  <SCORE.INTRA.DIHEDRAL.0>
26.0734

>  <SCORE.INTRA.POLAR>
0

>  <SCORE.INTRA.POLAR.0>
0

>  <SCORE.INTRA.REPUL>
0

>  <SCORE.INTRA.REPUL.0>
0

>  <SCORE.INTRA.VDW>
-0.948

>  <SCORE.INTRA.VDW.0>
1.41869

>  <SCORE.INTRA.norm>
-0.436228

>  <SCORE.RESTR>
0

>  <SCORE.RESTR.CAVITY>
0

>  <SCORE.RESTR.norm>
0

>  <SCORE.SYSTEM>
-0.99984

>  <SCORE.SYSTEM.CONST>
0

>  <SCORE.SYSTEM.DIHEDRAL>
0.0537728

>  <SCORE.SYSTEM.VDW>
-1.02673

>  <SCORE.SYSTEM.norm>
-0.0434713

>  <SCORE.heavy>
23

>  <SCORE.norm>
-0.939878

>  <TITLE>
    3652_D                                                                

$$$$
Hydroxychloroquine.pdb
  RxDock  02242101213D
librxdock.so/0.1.0
 26 27  0  0  0  0  0  0  0  0999 V2000
  -50.9057   -3.0635   19.6487 Cl  0  0  0  0  0  0
  -46.0063   -1.3059   21.0248 O   0  0  0  0  0  0
  -46.7463    1.1412   19.4553 N   0  3  0  0  0  0
  -46.5877   -1.8643   14.5637 N   0  0  0  0  0  0
  -50.4389   -0.3260   15.4379 N   0  0  0  0  0  0
  -45.3324   -0.4297   16.2026 C   0  0  0  0  0  0
  -46.1203   -0.4125   17.5226 C   0  0  0  0  0  0
  -45.4501   -1.7971   15.5051 C   0  0  0  0  0  0
  -46.1271    1.0254   18.0828 C   0  0  0  0  0  0
  -45.7188    1.0703   20.5615 C   0  0  0  0  0  0
  -44.1901   -1.9947   14.6463 C   0  0  0  0  0  0
  -47.6419    2.3527   19.5797 C   0  0  0  0  0  0
  -47.8630   -1.3637   14.8523 C   0  0  0  0  0  0
  -45.0359   -0.3071   20.6788 C   0  0  0  0  0  0
  -49.0271    2.1529   18.9327 C   0  0  0  0  0  0
  -48.5682   -1.8020   15.9885 C   0  0  0  0  0  0
  -48.4755   -0.4318   14.0534 C   0  0  0  0  0  0
  -49.8369   -1.2533   16.2392 C   0  0  0  0  0  0
  -48.0474   -2.7543   16.8920 C   0  0  0  0  0  0
  -49.7314    0.0511   14.3659 C   0  0  0  0  0  0
  -50.5450   -1.6662   17.3874 C   0  0  0  0  0  0
  -48.7509   -3.1299   17.9829 C   0  0  0  0  0  0
  -50.0171   -2.5767   18.2360 C   0  0  0  0  0  0
  -46.7359   -1.3613   20.3345 H   0  0  0  0  0  0
  -47.2846    0.4130   19.5539 H   0  0  0  0  0  0
  -46.4016   -2.0486   13.7236 H   0  0  0  0  0  0
  1 23  1  0  0  0
  2 14  1  0  0  0
  2 24  1  0  0  0
  3  9  1  0  0  0
  3 10  1  0  0  0
  3 12  1  0  0  0
  3 25  1  0  0  0
  4  8  1  0  0  0
  4 13  1  0  0  0
  4 26  1  0  0  0
  5 18  2  0  0  0
  5 20  1  0  0  0
  6  7  1  0  0  0
  6  8  1  0  0  0
  7  9  1  0  0  0
  8 11  1  0  0  0
 10 14  1  0  0  0
 12 15  1  0  0  0
 13 16  2  0  0  0
 13 17  1  0  0  0
 16 18  1  0  0  0
 16 19  1  0  0  0
 17 20  2  0  0  0
 18 21  1  0  0  0
 19 22  2  0  0  0
 21 23  2  0  0  0
 22 23  1  0  0  0
M  END
>  <CHROM.0>
-54.27695983,179.15787944,-60.70001546

>  <CHROM.1>
59.24162110,94.38448199,-66.81488223,78.31065712,-43.59792936,-56.25715020
-172.49370279,90.89099684,-173.78847831,-63.37538664,-47.83484987,-0.91792875
17.51694158,2.06568618,-0.40001992,-1.78968689

>  <HEADER>
                                                                          

>  <MASTER>
        0    0    0    0    0    0    0    0   50    0   50    0          

>  <Name>
Hydroxychloroquine.pdb

>  <RI>
-4.06035e+08

>  <Rbt.Current_Directory>
/root/miniconda3/envs/rdock/share/rxdock-2013.1.1_148c5bd1-0/data/ligands/prepped_ligands/Hydroxychloroquine

>  <Rbt.Executable>
rbdock/0.1.0

>  <Rbt.Library>
librxdock.so/0.1.0

>  <Rbt.Parameter_File>
/root/miniconda3/envs/rdock/share/rxdock-2013.1.1_148c5bd1-0/data/scripts/dock.prm

>  <Rbt.Receptor>
def.prm

>  <SCORE>
-13.0809

>  <SCORE.INTER>
-5.59291

>  <SCORE.INTER.CONST>
1

>  <SCORE.INTER.POLAR>
-1.0933

>  <SCORE.INTER.REPUL>
0

>  <SCORE.INTER.ROT>
9

>  <SCORE.INTER.VDW>
-16.2757

>  <SCORE.INTER.norm>
-0.24317

>  <SCORE.INTRA>
-6.4652

>  <SCORE.INTRA.DIHEDRAL>
-9.46071

>  <SCORE.INTRA.DIHEDRAL.0>
26.0734

>  <SCORE.INTRA.POLAR>
0

>  <SCORE.INTRA.POLAR.0>
0

>  <SCORE.INTRA.REPUL>
0

>  <SCORE.INTRA.REPUL.0>
0

>  <SCORE.INTRA.VDW>
-1.73485

>  <SCORE.INTRA.VDW.0>
1.41869

>  <SCORE.INTRA.norm>
-0.281096

>  <SCORE.RESTR>
0

>  <SCORE.RESTR.CAVITY>
0

>  <SCORE.RESTR.norm>
0

>  <SCORE.SYSTEM>
-1.02279

>  <SCORE.SYSTEM.CONST>
0

>  <SCORE.SYSTEM.DIHEDRAL>
0.0815209

>  <SCORE.SYSTEM.VDW>
-1.06355

>  <SCORE.SYSTEM.norm>
-0.0444692

>  <SCORE.heavy>
23

>  <SCORE.norm>
-0.568735

>  <TITLE>
    3652_D                                                                

$$$$
Hydroxychloroquine.pdb
  RxDock  02242101213D
librxdock.so/0.1.0
 26 27  0  0  0  0  0  0  0  0999 V2000
  -42.9300   -1.8397   19.1319 Cl  0  0  0  0  0  0
  -50.8102   -2.9860   17.9286 O   0  0  0  0  0  0
  -52.1686   -5.4025   16.9692 N   0  3  0  0  0  0
  -48.1480   -2.9585   14.9532 N   0  0  0  0  0  0
  -47.3507    0.1433   17.7291 N   0  0  0  0  0  0
  -50.2130   -4.3892   14.8595 C   0  0  0  0  0  0
  -51.7352   -4.2019   14.7530 C   0  0  0  0  0  0
  -49.4642   -3.1606   14.3116 C   0  0  0  0  0  0
  -52.4351   -5.3674   15.4832 C   0  0  0  0  0  0
  -52.8634   -4.2821   17.7085 C   0  0  0  0  0  0
  -49.1649   -3.4188   12.8257 C   0  0  0  0  0  0
  -52.4619   -6.7575   17.5723 C   0  0  0  0  0  0
  -47.8841   -1.9393   15.8763 C   0  0  0  0  0  0
  -52.1846   -2.9101   17.5235 C   0  0  0  0  0  0
  -51.6960   -7.0166   18.8851 C   0  0  0  0  0  0
  -46.7080   -1.9545   16.6487 C   0  0  0  0  0  0
  -48.7469   -0.8897   16.0659 C   0  0  0  0  0  0
  -46.4858   -0.8974   17.5469 C   0  0  0  0  0  0
  -45.7382   -2.9760   16.5458 C   0  0  0  0  0  0
  -48.4581    0.1067   16.9779 C   0  0  0  0  0  0
  -45.2996   -0.8877   18.3105 C   0  0  0  0  0  0
  -44.6121   -2.9385   17.2919 C   0  0  0  0  0  0
  -44.3880   -1.8782   18.1857 C   0  0  0  0  0  0
  -50.7285   -3.2416   18.8981 H   0  0  0  0  0  0
  -51.2738   -5.2649   17.0707 H   0  0  0  0  0  0
  -47.5706   -3.6204   14.8993 H   0  0  0  0  0  0
  1 23  1  0  0  0
  2 14  1  0  0  0
  2 24  1  0  0  0
  3  9  1  0  0  0
  3 10  1  0  0  0
  3 12  1  0  0  0
  3 25  1  0  0  0
  4  8  1  0  0  0
  4 13  1  0  0  0
  4 26  1  0  0  0
  5 18  2  0  0  0
  5 20  1  0  0  0
  6  7  1  0  0  0
  6  8  1  0  0  0
  7  9  1  0  0  0
  8 11  1  0  0  0
 10 14  1  0  0  0
 12 15  1  0  0  0
 13 16  2  0  0  0
 13 17  1  0  0  0
 16 18  1  0  0  0
 16 19  1  0  0  0
 17 20  2  0  0  0
 18 21  1  0  0  0
 19 22  2  0  0  0
 21 23  2  0  0  0
 22 23  1  0  0  0
M  END
>  <CHROM.0>
53.60881701,-178.65204895,-57.71098464

>  <CHROM.1>
-60.61458401,71.06425542,-75.38740156,156.52192771,-106.91032386,167.22060832
-172.46479722,151.46050146,64.22417690,-56.39876116,-48.52835573,-2.99415769
16.85183278,-0.02331836,0.47154606,2.04880665

>  <HEADER>
                                                                          

>  <MASTER>
        0    0    0    0    0    0    0    0   50    0   50    0          

>  <Name>
Hydroxychloroquine.pdb

>  <RI>
-4.06035e+08

>  <Rbt.Current_Directory>
/root/miniconda3/envs/rdock/share/rxdock-2013.1.1_148c5bd1-0/data/ligands/prepped_ligands/Hydroxychloroquine

>  <Rbt.Executable>
rbdock/0.1.0

>  <Rbt.Library>
librxdock.so/0.1.0

>  <Rbt.Parameter_File>
/root/miniconda3/envs/rdock/share/rxdock-2013.1.1_148c5bd1-0/data/scripts/dock.prm

>  <Rbt.Receptor>
def.prm

>  <SCORE>
-16.2822

>  <SCORE.INTER>
-5.20094

>  <SCORE.INTER.CONST>
1

>  <SCORE.INTER.POLAR>
-0.540098

>  <SCORE.INTER.REPUL>
0

>  <SCORE.INTER.ROT>
9

>  <SCORE.INTER.VDW>
-17.7646

>  <SCORE.INTER.norm>
-0.226128

>  <SCORE.INTRA>
-10.0971

>  <SCORE.INTRA.DIHEDRAL>
-17.7069

>  <SCORE.INTRA.DIHEDRAL.0>
26.0734

>  <SCORE.INTRA.POLAR>
-0.000728126

>  <SCORE.INTRA.POLAR.0>
0

>  <SCORE.INTRA.REPUL>
0

>  <SCORE.INTRA.REPUL.0>
0

>  <SCORE.INTRA.VDW>
-1.24115

>  <SCORE.INTRA.VDW.0>
1.41869

>  <SCORE.INTRA.norm>
-0.439003

>  <SCORE.RESTR>
0

>  <SCORE.RESTR.CAVITY>
0

>  <SCORE.RESTR.norm>
0

>  <SCORE.SYSTEM>
-0.984173

>  <SCORE.SYSTEM.CONST>
0

>  <SCORE.SYSTEM.DIHEDRAL>
0.124694

>  <SCORE.SYSTEM.POLAR>
-0.00623443

>  <SCORE.SYSTEM.VDW>
-1.02532

>  <SCORE.SYSTEM.norm>
-0.0427901

>  <SCORE.heavy>
23

>  <SCORE.norm>
-0.707921

>  <TITLE>
    3652_D                                                                

$$$$
Hydroxychloroquine.pdb
  RxDock  02242101213D
librxdock.so/0.1.0
 26 27  0  0  0  0  0  0  0  0999 V2000
  -42.9575   -1.8436   19.3288 Cl  0  0  0  0  0  0
  -48.3923   -5.7233   18.1672 O   0  0  0  0  0  0
  -51.5016   -5.8282   15.9923 N   0  3  0  0  0  0
  -48.2958   -2.3129   15.1789 N   0  0  0  0  0  0
  -47.5421    0.1172   18.5684 N   0  0  0  0  0  0
  -49.7315   -3.4737   13.4726 C   0  0  0  0  0  0
  -49.9228   -4.7656   14.2837 C   0  0  0  0  0  0
  -49.5514   -2.2586   14.4008 C   0  0  0  0  0  0
  -51.2871   -4.7079   15.0026 C   0  0  0  0  0  0
  -50.6412   -5.6828   17.2264 C   0  0  0  0  0  0
  -49.4361   -1.0064   13.5160 C   0  0  0  0  0  0
  -52.9623   -6.0229   16.3299 C   0  0  0  0  0  0
  -48.0458   -1.5168   16.3032 C   0  0  0  0  0  0
  -49.1466   -5.9618   16.9700 C   0  0  0  0  0  0
  -53.6189   -4.7652   16.9335 C   0  0  0  0  0  0
  -46.8356   -1.6320   17.0120 C   0  0  0  0  0  0
  -48.9555   -0.5964   16.7584 C   0  0  0  0  0  0
  -46.6304   -0.7961   18.1223 C   0  0  0  0  0  0
  -45.8167   -2.5380   16.6441 C   0  0  0  0  0  0
  -48.6798    0.1817   17.8659 C   0  0  0  0  0  0
  -45.4121   -0.8844   18.8280 C   0  0  0  0  0  0
  -44.6606   -2.5993   17.3412 C   0  0  0  0  0  0
  -44.4539   -1.7591   18.4479 C   0  0  0  0  0  0
  -48.7243   -6.2919   18.9277 H   0  0  0  0  0  0
  -51.2307   -6.5915   15.5754 H   0  0  0  0  0  0
  -47.7718   -3.0071   15.0451 H   0  0  0  0  0  0
  1 23  1  0  0  0
  2 14  1  0  0  0
  2 24  1  0  0  0
  3  9  1  0  0  0
  3 10  1  0  0  0
  3 12  1  0  0  0
  3 25  1  0  0  0
  4  8  1  0  0  0
  4 13  1  0  0  0
  4 26  1  0  0  0
  5 18  2  0  0  0
  5 20  1  0  0  0
  6  7  1  0  0  0
  6  8  1  0  0  0
  7  9  1  0  0  0
  8 11  1  0  0  0
 10 14  1  0  0  0
 12 15  1  0  0  0
 13 16  2  0  0  0
 13 17  1  0  0  0
 16 18  1  0  0  0
 16 19  1  0  0  0
 17 20  2  0  0  0
 18 21  1  0  0  0
 19 22  2  0  0  0
 21 23  2  0  0  0
 22 23  1  0  0  0
M  END
>  <CHROM.0>
171.09910928,-176.34189925,51.98133193

>  <CHROM.1>
57.77022146,71.11527335,-71.76843089,-59.05672658,-164.31920228,179.04147035
68.48966285,66.54075328,-171.46018202,176.48736697,-48.20075232,-2.91865498
16.78342359,-0.21597514,0.54818917,2.65162909

>  <HEADER>
                                                                          

>  <MASTER>
        0    0    0    0    0    0    0    0   50    0   50    0          

>  <Name>
Hydroxychloroquine.pdb

>  <RI>
-4.06035e+08

>  <Rbt.Current_Directory>
/root/miniconda3/envs/rdock/share/rxdock-2013.1.1_148c5bd1-0/data/ligands/prepped_ligands/Hydroxychloroquine

>  <Rbt.Executable>
rbdock/0.1.0

>  <Rbt.Library>
librxdock.so/0.1.0

>  <Rbt.Parameter_File>
/root/miniconda3/envs/rdock/share/rxdock-2013.1.1_148c5bd1-0/data/scripts/dock.prm

>  <Rbt.Receptor>
def.prm

>  <SCORE>
-20.2216

>  <SCORE.INTER>
-9.53856

>  <SCORE.INTER.CONST>
1

>  <SCORE.INTER.POLAR>
-1.3868

>  <SCORE.INTER.REPUL>
0

>  <SCORE.INTER.ROT>
9

>  <SCORE.INTER.VDW>
-19.2235

>  <SCORE.INTER.norm>
-0.41472

>  <SCORE.INTRA>
-9.85075

>  <SCORE.INTRA.DIHEDRAL>
-21.6024

>  <SCORE.INTRA.DIHEDRAL.0>
26.0734

>  <SCORE.INTRA.POLAR>
0

>  <SCORE.INTRA.POLAR.0>
0

>  <SCORE.INTRA.REPUL>
0

>  <SCORE.INTRA.REPUL.0>
0

>  <SCORE.INTRA.VDW>
0.950449

>  <SCORE.INTRA.VDW.0>
1.41869

>  <SCORE.INTRA.norm>
-0.428293

>  <SCORE.RESTR>
0

>  <SCORE.RESTR.CAVITY>
0

>  <SCORE.RESTR.norm>
0

>  <SCORE.SYSTEM>
-0.832332

>  <SCORE.SYSTEM.CONST>
0

>  <SCORE.SYSTEM.DIHEDRAL>
0.427013

>  <SCORE.SYSTEM.VDW>
-1.04584

>  <SCORE.SYSTEM.norm>
-0.0361884

>  <SCORE.heavy>
23

>  <SCORE.norm>
-0.879202

>  <TITLE>
    3652_D                                                                

$$$$
Hydroxychloroquine.pdb
  RxDock  02242101223D
librxdock.so/0.1.0
 26 27  0  0  0  0  0  0  0  0999 V2000
  -43.2279   -1.5877   19.1670 Cl  0  0  0  0  0  0
  -55.1887   -4.9433   16.1141 O   0  0  0  0  0  0
  -51.8612   -6.2140   17.4286 N   0  3  0  0  0  0
  -48.1995   -3.0222   14.7890 N   0  0  0  0  0  0
  -47.6961    0.1297   17.5773 N   0  0  0  0  0  0
  -50.0939   -4.6256   14.3891 C   0  0  0  0  0  0
  -50.6237   -4.6452   15.8322 C   0  0  0  0  0  0
  -49.4570   -3.2653   14.0513 C   0  0  0  0  0  0
  -50.9602   -6.0999   16.2220 C   0  0  0  0  0  0
  -53.3268   -6.2015   17.0597 C   0  0  0  0  0  0
  -49.0668   -3.2872   12.5643 C   0  0  0  0  0  0
  -51.4992   -7.3915   18.3049 C   0  0  0  0  0  0
  -48.0327   -1.9864   15.7162 C   0  0  0  0  0  0
  -53.7936   -4.8685   16.4412 C   0  0  0  0  0  0
  -51.9244   -7.2074   19.7755 C   0  0  0  0  0  0
  -46.8897   -1.9305   16.5352 C   0  0  0  0  0  0
  -48.9619   -0.9882   15.8653 C   0  0  0  0  0  0
  -46.7657   -0.8594   17.4356 C   0  0  0  0  0  0
  -45.8589   -2.8941   16.4769 C   0  0  0  0  0  0
  -48.7684    0.0262   16.7825 C   0  0  0  0  0  0
  -45.6138   -0.7781   18.2460 C   0  0  0  0  0  0
  -44.7678   -2.7886   17.2673 C   0  0  0  0  0  0
  -44.6419   -1.7142   18.1634 C   0  0  0  0  0  0
  -55.3695   -5.6769   15.4499 H   0  0  0  0  0  0
  -51.7128   -5.4671   17.9285 H   0  0  0  0  0  0
  -47.6034   -3.6696   14.7881 H   0  0  0  0  0  0
  1 23  1  0  0  0
  2 14  1  0  0  0
  2 24  1  0  0  0
  3  9  1  0  0  0
  3 10  1  0  0  0
  3 12  1  0  0  0
  3 25  1  0  0  0
  4  8  1  0  0  0
  4 13  1  0  0  0
  4 26  1  0  0  0
  5 18  2  0  0  0
  5 20  1  0  0  0
  6  7  1  0  0  0
  6  8  1  0  0  0
  7  9  1  0  0  0
  8 11  1  0  0  0
 10 14  1  0  0  0
 12 15  1  0  0  0
 13 16  2  0  0  0
 13 17  1  0  0  0
 16 18  1  0  0  0
 16 19  1  0  0  0
 17 20  2  0  0  0
 18 21  1  0  0  0
 19 22  2  0  0  0
 21 23  2  0  0  0
 22 23  1  0  0  0
M  END
>  <CHROM.0>
178.84475624,-178.03543404,161.73782809

>  <CHROM.1>
-60.22309183,89.16410668,-65.02064395,154.58274860,-116.54169963,170.07161462
-167.56064712,68.67437564,-162.53439641,179.66383878,-48.79968296,-3.34629894
16.76384087,-0.16507596,0.50708975,2.17127304

>  <HEADER>
                                                                          

>  <MASTER>
        0    0    0    0    0    0    0    0   50    0   50    0          

>  <Name>
Hydroxychloroquine.pdb

>  <RI>
-4.06035e+08

>  <Rbt.Current_Directory>
/root/miniconda3/envs/rdock/share/rxdock-2013.1.1_148c5bd1-0/data/ligands/prepped_ligands/Hydroxychloroquine

>  <Rbt.Executable>
rbdock/0.1.0

>  <Rbt.Library>
librxdock.so/0.1.0

>  <Rbt.Parameter_File>
/root/miniconda3/envs/rdock/share/rxdock-2013.1.1_148c5bd1-0/data/scripts/dock.prm

>  <Rbt.Receptor>
def.prm

>  <SCORE>
-20.5494

>  <SCORE.INTER>
-9.82427

>  <SCORE.INTER.CONST>
1

>  <SCORE.INTER.POLAR>
-1.51356

>  <SCORE.INTER.REPUL>
0

>  <SCORE.INTER.ROT>
9

>  <SCORE.INTER.VDW>
-19.0782

>  <SCORE.INTER.norm>
-0.427142

>  <SCORE.INTRA>
-10.1198

>  <SCORE.INTRA.DIHEDRAL>
-18.2769

>  <SCORE.INTRA.DIHEDRAL.0>
26.0734

>  <SCORE.INTRA.POLAR>
0

>  <SCORE.INTRA.POLAR.0>
0

>  <SCORE.INTRA.REPUL>
0

>  <SCORE.INTRA.REPUL.0>
0

>  <SCORE.INTRA.VDW>
-0.981339

>  <SCORE.INTRA.VDW.0>
1.41869

>  <SCORE.INTRA.norm>
-0.43999

>  <SCORE.RESTR>
0

>  <SCORE.RESTR.CAVITY>
0

>  <SCORE.RESTR.norm>
0

>  <SCORE.SYSTEM>
-0.605314

>  <SCORE.SYSTEM.CONST>
0

>  <SCORE.SYSTEM.DIHEDRAL>
0.79813

>  <SCORE.SYSTEM.VDW>
-1.00438

>  <SCORE.SYSTEM.norm>
-0.026318

>  <SCORE.heavy>
23

>  <SCORE.norm>
-0.893451

>  <TITLE>
    3652_D                                                                

$$$$
Hydroxychloroquine.pdb
  RxDock  02242101223D
librxdock.so/0.1.0
 26 27  0  0  0  0  0  0  0  0999 V2000
  -52.7747   -3.3597   20.6710 Cl  0  0  0  0  0  0
  -43.7000   -2.4387   18.9952 O   0  0  0  0  0  0
  -44.9688   -1.3353   16.5188 N   0  3  0  0  0  0
  -49.8320   -0.8046   15.1256 N   0  0  0  0  0  0
  -52.9593   -3.6189   15.6370 N   0  0  0  0  0  0
  -47.5048   -0.5831   14.2008 C   0  0  0  0  0  0
  -47.0038   -1.7745   15.0332 C   0  0  0  0  0  0
  -49.0095   -0.7107   13.9010 C   0  0  0  0  0  0
  -45.4661   -1.6990   15.1401 C   0  0  0  0  0  0
  -43.4989   -1.6362   16.7018 C   0  0  0  0  0  0
  -49.4584    0.5816   13.1992 C   0  0  0  0  0  0
  -45.3156    0.0868   16.8966 C   0  0  0  0  0  0
  -50.8601   -1.7392   15.2989 C   0  0  0  0  0  0
  -43.0189   -1.4914   18.1599 C   0  0  0  0  0  0
  -45.6721    0.2493   18.3878 C   0  0  0  0  0  0
  -51.2788   -2.1181   16.5878 C   0  0  0  0  0  0
  -51.5018   -2.3190   14.2340 C   0  0  0  0  0  0
  -52.3265   -3.0467   16.7030 C   0  0  0  0  0  0
  -50.7021   -1.5923   17.7649 C   0  0  0  0  0  0
  -52.5185   -3.2325   14.4336 C   0  0  0  0  0  0
  -52.7722   -3.4177   17.9891 C   0  0  0  0  0  0
  -51.1510   -1.9685   18.9828 C   0  0  0  0  0  0
  -52.2026   -2.8928   19.0972 C   0  0  0  0  0  0
  -44.6945   -2.2880   18.9830 H   0  0  0  0  0  0
  -45.4183   -1.8723   17.1014 H   0  0  0  0  0  0
  -49.5334   -0.3883   15.8411 H   0  0  0  0  0  0
  1 23  1  0  0  0
  2 14  1  0  0  0
  2 24  1  0  0  0
  3  9  1  0  0  0
  3 10  1  0  0  0
  3 12  1  0  0  0
  3 25  1  0  0  0
  4  8  1  0  0  0
  4 13  1  0  0  0
  4 26  1  0  0  0
  5 18  2  0  0  0
  5 20  1  0  0  0
  6  7  1  0  0  0
  6  8  1  0  0  0
  7  9  1  0  0  0
  8 11  1  0  0  0
 10 14  1  0  0  0
 12 15  1  0  0  0
 13 16  2  0  0  0
 13 17  1  0  0  0
 16 18  1  0  0  0
 16 19  1  0  0  0
 17 20  2  0  0  0
 18 21  1  0  0  0
 19 22  2  0  0  0
 21 23  2  0  0  0
 22 23  1  0  0  0
M  END
>  <CHROM.0>
68.27769981,-63.62864428,-60.10925706

>  <CHROM.1>
-60.67462443,164.15022308,-170.61260262,143.40936613,-134.10014525,156.92460338
172.31986274,57.97806790,109.17438423,62.69563749,-49.01110813,-1.84184350
16.78465637,-2.97041040,-0.19017029,-1.31500592

>  <HEADER>
                                                                          

>  <MASTER>
        0    0    0    0    0    0    0    0   50    0   50    0          

>  <Name>
Hydroxychloroquine.pdb

>  <RI>
-4.06035e+08

>  <Rbt.Current_Directory>
/root/miniconda3/envs/rdock/share/rxdock-2013.1.1_148c5bd1-0/data/ligands/prepped_ligands/Hydroxychloroquine

>  <Rbt.Executable>
rbdock/0.1.0

>  <Rbt.Library>
librxdock.so/0.1.0

>  <Rbt.Parameter_File>
/root/miniconda3/envs/rdock/share/rxdock-2013.1.1_148c5bd1-0/data/scripts/dock.prm

>  <Rbt.Receptor>
def.prm

>  <SCORE>
-15.2596

>  <SCORE.INTER>
-5.82583

>  <SCORE.INTER.CONST>
1

>  <SCORE.INTER.POLAR>
0

>  <SCORE.INTER.REPUL>
0.0206662

>  <SCORE.INTER.ROT>
9

>  <SCORE.INTER.VDW>
-20.3292

>  <SCORE.INTER.norm>
-0.253297

>  <SCORE.INTRA>
-8.48794

>  <SCORE.INTRA.DIHEDRAL>
-15.479

>  <SCORE.INTRA.DIHEDRAL.0>
26.0734

>  <SCORE.INTRA.POLAR>
0

>  <SCORE.INTRA.POLAR.0>
0

>  <SCORE.INTRA.REPUL>
0

>  <SCORE.INTRA.REPUL.0>
0

>  <SCORE.INTRA.VDW>
-0.748463

>  <SCORE.INTRA.VDW.0>
1.41869

>  <SCORE.INTRA.norm>
-0.369041

>  <SCORE.RESTR>
0

>  <SCORE.RESTR.CAVITY>
0

>  <SCORE.RESTR.norm>
0

>  <SCORE.SYSTEM>
-0.945839

>  <SCORE.SYSTEM.CONST>
0

>  <SCORE.SYSTEM.DIHEDRAL>
0.225601

>  <SCORE.SYSTEM.POLAR>
-0.000494721

>  <SCORE.SYSTEM.VDW>
-1.05696

>  <SCORE.SYSTEM.norm>
-0.0411235

>  <SCORE.heavy>
23

>  <SCORE.norm>
-0.663462

>  <TITLE>
    3652_D                                                                

$$$$
Hydroxychloroquine.pdb
  RxDock  02242101223D
librxdock.so/0.1.0
 26 27  0  0  0  0  0  0  0  0999 V2000
  -53.3038   -7.1760   16.7924 Cl  0  0  0  0  0  0
  -43.2970   -2.1931   19.7328 O   0  0  0  0  0  0
  -44.6312   -1.4808   17.1534 N   0  3  0  0  0  0
  -49.5717   -1.8207   14.9671 N   0  0  0  0  0  0
  -52.5135   -2.3365   17.9740 N   0  0  0  0  0  0
  -47.2175   -2.5441   14.4627 C   0  0  0  0  0  0
  -46.7280   -2.2037   15.8798 C   0  0  0  0  0  0
  -48.7119   -2.9141   14.4669 C   0  0  0  0  0  0
  -45.2105   -1.9269   15.8320 C   0  0  0  0  0  0
  -43.1841   -1.8853   17.3169 C   0  0  0  0  0  0
  -49.1415   -3.1443   13.0087 C   0  0  0  0  0  0
  -44.8476   -0.0059   17.4053 C   0  0  0  0  0  0
  -50.5490   -1.9932   15.9547 C   0  0  0  0  0  0
  -42.5914   -1.5065   18.6890 C   0  0  0  0  0  0
  -46.3143    0.3470   17.7239 C   0  0  0  0  0  0
  -51.1992   -3.2308   16.1156 C   0  0  0  0  0  0
  -50.9112   -0.9781   16.8034 C   0  0  0  0  0  0
  -52.1591   -3.3528   17.1340 C   0  0  0  0  0  0
  -50.9149   -4.3549   15.3093 C   0  0  0  0  0  0
  -51.8732   -1.1780   17.7743 C   0  0  0  0  0  0
  -52.8017   -4.5946   17.3218 C   0  0  0  0  0  0
  -51.5484   -5.5309   15.5139 C   0  0  0  0  0  0
  -52.5042   -5.6538   16.5360 C   0  0  0  0  0  0
  -44.2546   -1.8899   19.7874 H   0  0  0  0  0  0
  -45.0988   -1.9224   17.7984 H   0  0  0  0  0  0
  -49.3243   -0.9980   14.7763 H   0  0  0  0  0  0
  1 23  1  0  0  0
  2 14  1  0  0  0
  2 24  1  0  0  0
  3  9  1  0  0  0
  3 10  1  0  0  0
  3 12  1  0  0  0
  3 25  1  0  0  0
  4  8  1  0  0  0
  4 13  1  0  0  0
  4 26  1  0  0  0
  5 18  2  0  0  0
  5 20  1  0  0  0
  6  7  1  0  0  0
  6  8  1  0  0  0
  7  9  1  0  0  0
  8 11  1  0  0  0
 10 14  1  0  0  0
 12 15  1  0  0  0
 13 16  2  0  0  0
 13 17  1  0  0  0
 16 18  1  0  0  0
 16 19  1  0  0  0
 17 20  2  0  0  0
 18 21  1  0  0  0
 19 22  2  0  0  0
 21 23  2  0  0  0
 22 23  1  0  0  0
M  END
>  <CHROM.0>
63.69545417,-60.45643435,56.95129373

>  <CHROM.1>
-65.19982398,150.48562459,-176.94740001,71.78791445,-130.10074691,-28.93587834
176.52690619,60.00655455,175.75341570,62.37586710,-48.88770393,-2.91527247
16.56155833,-2.90841003,-0.37490317,-0.71023617

>  <HEADER>
                                                                          

>  <MASTER>
        0    0    0    0    0    0    0    0   50    0   50    0          

>  <Name>
Hydroxychloroquine.pdb

>  <RI>
-4.06035e+08

>  <Rbt.Current_Directory>
/root/miniconda3/envs/rdock/share/rxdock-2013.1.1_148c5bd1-0/data/ligands/prepped_ligands/Hydroxychloroquine

>  <Rbt.Executable>
rbdock/0.1.0

>  <Rbt.Library>
librxdock.so/0.1.0

>  <Rbt.Parameter_File>
/root/miniconda3/envs/rdock/share/rxdock-2013.1.1_148c5bd1-0/data/scripts/dock.prm

>  <Rbt.Receptor>
def.prm

>  <SCORE>
-16.5871

>  <SCORE.INTER>
-6.2706

>  <SCORE.INTER.CONST>
1

>  <SCORE.INTER.POLAR>
0

>  <SCORE.INTER.REPUL>
0.000655575

>  <SCORE.INTER.ROT>
9

>  <SCORE.INTER.VDW>
-20.6739

>  <SCORE.INTER.norm>
-0.272635

>  <SCORE.INTRA>
-9.29447

>  <SCORE.INTRA.DIHEDRAL>
-20.195

>  <SCORE.INTRA.DIHEDRAL.0>
26.0734

>  <SCORE.INTRA.POLAR>
0

>  <SCORE.INTRA.POLAR.0>
0

>  <SCORE.INTRA.REPUL>
0

>  <SCORE.INTRA.REPUL.0>
0

>  <SCORE.INTRA.VDW>
0.803043

>  <SCORE.INTRA.VDW.0>
1.41869

>  <SCORE.INTRA.norm>
-0.404107

>  <SCORE.RESTR>
0

>  <SCORE.RESTR.CAVITY>
0

>  <SCORE.RESTR.norm>
0

>  <SCORE.SYSTEM>
-1.02204

>  <SCORE.SYSTEM.CONST>
0

>  <SCORE.SYSTEM.DIHEDRAL>
0.0574631

>  <SCORE.SYSTEM.VDW>
-1.05077

>  <SCORE.SYSTEM.norm>
-0.0444363

>  <SCORE.heavy>
23

>  <SCORE.norm>
-0.721178

>  <TITLE>
    3652_D                                                                

$$$$
