Hydroxychloroquine.pdb
  RxDock  02242109493D
librxdock.so/0.1.0
 26 27  0  0  0  0  0  0  0  0999 V2000
  -49.4385   -9.5137   18.9871 Cl  0  0  0  0  0  0
  -50.8288   -1.1268   13.3752 O   0  0  0  0  0  0
  -50.2711   -2.0228   16.3392 N   0  3  0  0  0  0
  -53.7242   -4.5254   17.3469 N   0  0  0  0  0  0
  -50.7335   -4.8287   20.3347 N   0  0  0  0  0  0
  -53.0465   -4.3437   14.9329 C   0  0  0  0  0  0
  -51.6073   -3.9286   15.2791 C   0  0  0  0  0  0
  -53.6527   -5.2200   16.0442 C   0  0  0  0  0  0
  -51.6391   -2.5610   15.9934 C   0  0  0  0  0  0
  -49.3577   -1.9484   15.1372 C   0  0  0  0  0  0
  -55.1092   -5.5253   15.6576 C   0  0  0  0  0  0
  -50.3435   -0.7114   17.0878 C   0  0  0  0  0  0
  -52.7400   -4.6321   18.3371 C   0  0  0  0  0  0
  -49.6924   -0.7853   14.1820 C   0  0  0  0  0  0
  -49.0302   -0.3518   17.8111 C   0  0  0  0  0  0
  -51.9863   -5.8120   18.4787 C   0  0  0  0  0  0
  -52.4653   -3.6034   19.2021 C   0  0  0  0  0  0
  -50.9998   -5.8578   19.4778 C   0  0  0  0  0  0
  -52.1691   -6.9407   17.6498 C   0  0  0  0  0  0
  -51.4834   -3.7328   20.1650 C   0  0  0  0  0  0
  -50.2207   -7.0258   19.6155 C   0  0  0  0  0  0
  -51.4070   -8.0454   17.8074 C   0  0  0  0  0  0
  -50.4169   -8.0885   18.8030 C   0  0  0  0  0  0
  -51.6643   -1.1955   13.9312 H   0  0  0  0  0  0
  -49.8980   -2.6249   16.9120 H   0  0  0  0  0  0
  -54.3081   -3.8711   17.4202 H   0  0  0  0  0  0
  1 23  1  0  0  0
  2 14  1  0  0  0
  2 24  1  0  0  0
  3  9  1  0  0  0
  3 10  1  0  0  0
  3 12  1  0  0  0
  3 25  1  0  0  0
  4  8  1  0  0  0
  4 13  1  0  0  0
  4 26  1  0  0  0
  5 18  2  0  0  0
  5 20  1  0  0  0
  6  7  1  0  0  0
  6  8  1  0  0  0
  7  9  1  0  0  0
  8 11  1  0  0  0
 10 14  1  0  0  0
 12 15  1  0  0  0
 13 16  2  0  0  0
 13 17  1  0  0  0
 16 18  1  0  0  0
 16 19  1  0  0  0
 17 20  2  0  0  0
 18 21  1  0  0  0
 19 22  2  0  0  0
 21 23  2  0  0  0
 22 23  1  0  0  0
M  END
>  <CHROM.0>
-177.22342391,-61.72865124,-170.46060147

>  <CHROM.1>
67.34067043,54.46956782,74.79340947,162.86492390,-94.66625288,-30.84747422
-92.95532119,60.79393968,-177.85240746,-78.01879986,-51.27544742,-4.61300690
17.32066817,-1.57020354,-0.64666464,-0.50056441

>  <HEADER>
                                                                          

>  <MASTER>
        0    0    0    0    0    0    0    0   50    0   50    0          

>  <Name>
Hydroxychloroquine.pdb

>  <RI>
-4.72595e+08

>  <Rbt.Current_Directory>
/root/miniconda3/envs/rdock/share/rxdock-2013.1.1_148c5bd1-0/data/ligands/prepped_ligands/Hydroxychloroquine

>  <Rbt.Executable>
rbdock/0.1.0

>  <Rbt.Library>
librxdock.so/0.1.0

>  <Rbt.Parameter_File>
/root/miniconda3/envs/rdock/share/rxdock-2013.1.1_148c5bd1-0/data/scripts/dock.prm

>  <Rbt.Receptor>
def.prm

>  <SCORE>
-18.6071

>  <SCORE.INTER>
-10.1444

>  <SCORE.INTER.CONST>
1

>  <SCORE.INTER.POLAR>
-1.57276

>  <SCORE.INTER.REPUL>
0

>  <SCORE.INTER.ROT>
9

>  <SCORE.INTER.VDW>
-19.197

>  <SCORE.INTER.norm>
-0.441059

>  <SCORE.INTRA>
-7.50956

>  <SCORE.INTRA.DIHEDRAL>
-15.0179

>  <SCORE.INTRA.DIHEDRAL.0>
26.0734

>  <SCORE.INTRA.POLAR>
0

>  <SCORE.INTRA.POLAR.0>
0

>  <SCORE.INTRA.REPUL>
0

>  <SCORE.INTRA.REPUL.0>
0

>  <SCORE.INTRA.VDW>
-0.00058774

>  <SCORE.INTRA.VDW.0>
1.41869

>  <SCORE.INTRA.norm>
-0.326503

>  <SCORE.RESTR>
0

>  <SCORE.RESTR.CAVITY>
0

>  <SCORE.RESTR.norm>
0

>  <SCORE.SYSTEM>
-0.953151

>  <SCORE.SYSTEM.CONST>
0

>  <SCORE.SYSTEM.DIHEDRAL>
0.24431

>  <SCORE.SYSTEM.POLAR>
-0.0176304

>  <SCORE.SYSTEM.VDW>
-1.01536

>  <SCORE.SYSTEM.norm>
-0.0414413

>  <SCORE.heavy>
23

>  <SCORE.norm>
-0.809003

>  <TITLE>
    3652_D                                                                

$$$$
Hydroxychloroquine.pdb
  RxDock  02242109493D
librxdock.so/0.1.0
 26 27  0  0  0  0  0  0  0  0999 V2000
  -47.0657    2.1339   18.8541 Cl  0  0  0  0  0  0
  -51.1708    0.3819   17.2751 O   0  0  0  0  0  0
  -51.4292   -2.5383   17.5864 N   0  3  0  0  0  0
  -47.2093   -3.0434   14.4820 N   0  0  0  0  0  0
  -44.0349   -0.6315   15.9200 N   0  0  0  0  0  0
  -49.6141   -3.0232   15.2145 C   0  0  0  0  0  0
  -50.9152   -2.2120   15.1024 C   0  0  0  0  0  0
  -48.5675   -2.5349   14.1964 C   0  0  0  0  0  0
  -51.9125   -2.7160   16.1667 C   0  0  0  0  0  0
  -52.2454   -1.5228   18.3527 C   0  0  0  0  0  0
  -48.9453   -3.1129   12.8226 C   0  0  0  0  0  0
  -51.3127   -3.8543   18.3212 C   0  0  0  0  0  0
  -46.1644   -2.2399   14.9542 C   0  0  0  0  0  0
  -51.5221   -0.1755   18.5498 C   0  0  0  0  0  0
  -52.6761   -4.5214   18.5922 C   0  0  0  0  0  0
  -46.4137   -1.1964   15.8648 C   0  0  0  0  0  0
  -44.8648   -2.4321   14.5592 C   0  0  0  0  0  0
  -45.3255   -0.4329   16.3190 C   0  0  0  0  0  0
  -47.7055   -0.8978   16.3512 C   0  0  0  0  0  0
  -43.8518   -1.6295   15.0468 C   0  0  0  0  0  0
  -45.5577    0.6011   17.2501 C   0  0  0  0  0  0
  -47.8954    0.1000   17.2425 C   0  0  0  0  0  0
  -46.8060    0.8594   17.7006 C   0  0  0  0  0  0
  -50.4658   -0.1701   16.8166 H   0  0  0  0  0  0
  -50.5848   -2.2017   17.5276 H   0  0  0  0  0  0
  -47.1133   -3.9160   14.5429 H   0  0  0  0  0  0
  1 23  1  0  0  0
  2 14  1  0  0  0
  2 24  1  0  0  0
  3  9  1  0  0  0
  3 10  1  0  0  0
  3 12  1  0  0  0
  3 25  1  0  0  0
  4  8  1  0  0  0
  4 13  1  0  0  0
  4 26  1  0  0  0
  5 18  2  0  0  0
  5 20  1  0  0  0
  6  7  1  0  0  0
  6  8  1  0  0  0
  7  9  1  0  0  0
  8 11  1  0  0  0
 10 14  1  0  0  0
 12 15  1  0  0  0
 13 16  2  0  0  0
 13 17  1  0  0  0
 16 18  1  0  0  0
 16 19  1  0  0  0
 17 20  2  0  0  0
 18 21  1  0  0  0
 19 22  2  0  0  0
 21 23  2  0  0  0
 22 23  1  0  0  0
M  END
>  <CHROM.0>
-61.63762275,-61.64182802,-177.85370153

>  <CHROM.1>
-67.67062030,112.59627029,-105.08701266,-68.04717051,-109.14115206,36.40684888
-178.50658145,165.79916988,61.88015329,57.96269235,-48.44401705,-1.30724281
16.55218605,0.10612531,0.35141830,0.75269335

>  <HEADER>
                                                                          

>  <MASTER>
        0    0    0    0    0    0    0    0   50    0   50    0          

>  <Name>
Hydroxychloroquine.pdb

>  <RI>
-4.72595e+08

>  <Rbt.Current_Directory>
/root/miniconda3/envs/rdock/share/rxdock-2013.1.1_148c5bd1-0/data/ligands/prepped_ligands/Hydroxychloroquine

>  <Rbt.Executable>
rbdock/0.1.0

>  <Rbt.Library>
librxdock.so/0.1.0

>  <Rbt.Parameter_File>
/root/miniconda3/envs/rdock/share/rxdock-2013.1.1_148c5bd1-0/data/scripts/dock.prm

>  <Rbt.Receptor>
def.prm

>  <SCORE>
-16.8463

>  <SCORE.INTER>
-10.9955

>  <SCORE.INTER.CONST>
1

>  <SCORE.INTER.POLAR>
-1.58725

>  <SCORE.INTER.REPUL>
0

>  <SCORE.INTER.ROT>
9

>  <SCORE.INTER.VDW>
-19.9989

>  <SCORE.INTER.norm>
-0.478066

>  <SCORE.INTRA>
-4.76848

>  <SCORE.INTRA.DIHEDRAL>
-9.29192

>  <SCORE.INTRA.DIHEDRAL.0>
26.0734

>  <SCORE.INTRA.POLAR>
0

>  <SCORE.INTRA.POLAR.0>
0

>  <SCORE.INTRA.REPUL>
0

>  <SCORE.INTRA.REPUL.0>
0

>  <SCORE.INTRA.VDW>
-0.122519

>  <SCORE.INTRA.VDW.0>
1.41869

>  <SCORE.INTRA.norm>
-0.207325

>  <SCORE.RESTR>
0

>  <SCORE.RESTR.CAVITY>
0

>  <SCORE.RESTR.norm>
0

>  <SCORE.SYSTEM>
-1.08228

>  <SCORE.SYSTEM.CONST>
0

>  <SCORE.SYSTEM.DIHEDRAL>
0.0309236

>  <SCORE.SYSTEM.POLAR>
-0.00694227

>  <SCORE.SYSTEM.VDW>
-1.07414

>  <SCORE.SYSTEM.norm>
-0.0470558

>  <SCORE.heavy>
23

>  <SCORE.norm>
-0.732447

>  <TITLE>
    3652_D                                                                

$$$$
Hydroxychloroquine.pdb
  RxDock  02242109493D
librxdock.so/0.1.0
 26 27  0  0  0  0  0  0  0  0999 V2000
  -49.5385    0.0199   20.5421 Cl  0  0  0  0  0  0
  -55.5256   -5.7473   16.0279 O   0  0  0  0  0  0
  -52.2921   -3.8799   15.3409 N   0  3  0  0  0  0
  -47.9743   -0.7357   13.9906 N   0  0  0  0  0  0
  -46.9178   -2.9671   17.4355 N   0  0  0  0  0  0
  -50.4121   -1.0498   13.4635 C   0  0  0  0  0  0
  -50.7174   -1.9902   14.6409 C   0  0  0  0  0  0
  -49.2813   -0.0672   13.8183 C   0  0  0  0  0  0
  -51.8740   -2.9311   14.2430 C   0  0  0  0  0  0
  -53.6694   -4.4589   15.1121 C   0  0  0  0  0  0
  -49.1027    0.8904   12.6287 C   0  0  0  0  0  0
  -51.2552   -4.9490   15.6003 C   0  0  0  0  0  0
  -47.6218   -1.4661   15.1320 C   0  0  0  0  0  0
  -54.2050   -5.2640   16.3131 C   0  0  0  0  0  0
  -50.1423   -4.4941   16.5656 C   0  0  0  0  0  0
  -48.0770   -1.0762   16.4051 C   0  0  0  0  0  0
  -46.8296   -2.5840   15.0631 C   0  0  0  0  0  0
  -47.7072   -1.8558   17.5137 C   0  0  0  0  0  0
  -48.9007    0.0525   16.6106 C   0  0  0  0  0  0
  -46.5036   -3.2906   16.2043 C   0  0  0  0  0  0
  -48.1758   -1.4899   18.7930 C   0  0  0  0  0  0
  -49.3327    0.3773   17.8491 C   0  0  0  0  0  0
  -48.9671   -0.4060   18.9564 C   0  0  0  0  0  0
  -55.5294   -6.3443   15.2182 H   0  0  0  0  0  0
  -52.3430   -3.3819   16.1020 H   0  0  0  0  0  0
  -47.4800   -0.8400   13.2700 H   0  0  0  0  0  0
  1 23  1  0  0  0
  2 14  1  0  0  0
  2 24  1  0  0  0
  3  9  1  0  0  0
  3 10  1  0  0  0
  3 12  1  0  0  0
  3 25  1  0  0  0
  4  8  1  0  0  0
  4 13  1  0  0  0
  4 26  1  0  0  0
  5 18  2  0  0  0
  5 20  1  0  0  0
  6  7  1  0  0  0
  6  8  1  0  0  0
  7  9  1  0  0  0
  8 11  1  0  0  0
 10 14  1  0  0  0
 12 15  1  0  0  0
 13 16  2  0  0  0
 13 17  1  0  0  0
 16 18  1  0  0  0
 16 19  1  0  0  0
 17 20  2  0  0  0
 18 21  1  0  0  0
 19 22  2  0  0  0
 21 23  2  0  0  0
 22 23  1  0  0  0
M  END
>  <CHROM.0>
-51.27616548,-176.99389420,54.14463340

>  <CHROM.1>
59.88517848,161.39529394,-171.49455474,84.64804163,-76.83117810,-34.60849504
178.83476421,67.45233685,-178.31874091,178.50310593,-49.88819964,-2.07995164
16.24993548,0.33169221,0.63234254,1.50433197

>  <HEADER>
                                                                          

>  <MASTER>
        0    0    0    0    0    0    0    0   50    0   50    0          

>  <Name>
Hydroxychloroquine.pdb

>  <RI>
-4.72595e+08

>  <Rbt.Current_Directory>
/root/miniconda3/envs/rdock/share/rxdock-2013.1.1_148c5bd1-0/data/ligands/prepped_ligands/Hydroxychloroquine

>  <Rbt.Executable>
rbdock/0.1.0

>  <Rbt.Library>
librxdock.so/0.1.0

>  <Rbt.Parameter_File>
/root/miniconda3/envs/rdock/share/rxdock-2013.1.1_148c5bd1-0/data/scripts/dock.prm

>  <Rbt.Receptor>
def.prm

>  <SCORE>
-22.056

>  <SCORE.INTER>
-11.8721

>  <SCORE.INTER.CONST>
1

>  <SCORE.INTER.POLAR>
-2.16162

>  <SCORE.INTER.REPUL>
0

>  <SCORE.INTER.ROT>
9

>  <SCORE.INTER.VDW>
-18.9225

>  <SCORE.INTER.norm>
-0.516176

>  <SCORE.INTRA>
-9.27518

>  <SCORE.INTRA.DIHEDRAL>
-17.4509

>  <SCORE.INTRA.DIHEDRAL.0>
26.0734

>  <SCORE.INTRA.POLAR>
0

>  <SCORE.INTRA.POLAR.0>
0

>  <SCORE.INTRA.REPUL>
0

>  <SCORE.INTRA.REPUL.0>
0

>  <SCORE.INTRA.VDW>
-0.549734

>  <SCORE.INTRA.VDW.0>
1.41869

>  <SCORE.INTRA.norm>
-0.403269

>  <SCORE.RESTR>
0

>  <SCORE.RESTR.CAVITY>
0

>  <SCORE.RESTR.norm>
0

>  <SCORE.SYSTEM>
-0.908742

>  <SCORE.SYSTEM.CONST>
0

>  <SCORE.SYSTEM.DIHEDRAL>
0.311639

>  <SCORE.SYSTEM.VDW>
-1.06456

>  <SCORE.SYSTEM.norm>
-0.0395105

>  <SCORE.heavy>
23

>  <SCORE.norm>
-0.958956

>  <TITLE>
    3652_D                                                                

$$$$
Hydroxychloroquine.pdb
  RxDock  02242109493D
librxdock.so/0.1.0
 26 27  0  0  0  0  0  0  0  0999 V2000
  -42.5109   -1.3228   18.2413 Cl  0  0  0  0  0  0
  -52.0320   -8.2198   18.9856 O   0  0  0  0  0  0
  -52.4336   -5.9848   15.9464 N   0  3  0  0  0  0
  -47.9180   -1.8849   14.1930 N   0  0  0  0  0  0
  -47.2776    0.2636   17.7897 N   0  0  0  0  0  0
  -49.4465   -3.6919   15.0404 C   0  0  0  0  0  0
  -50.8270   -4.3358   14.8326 C   0  0  0  0  0  0
  -49.1312   -2.6839   13.9203 C   0  0  0  0  0  0
  -51.2198   -5.1019   16.1133 C   0  0  0  0  0  0
  -52.7900   -6.7246   17.2154 C   0  0  0  0  0  0
  -48.8217   -3.4837   12.6441 C   0  0  0  0  0  0
  -53.6122   -5.2354   15.3679 C   0  0  0  0  0  0
  -47.7046   -1.1821   15.3851 C   0  0  0  0  0  0
  -51.6772   -7.6713   17.7080 C   0  0  0  0  0  0
  -54.7275   -6.1651   14.8490 C   0  0  0  0  0  0
  -46.4663   -1.2516   16.0500 C   0  0  0  0  0  0
  -48.6789   -0.3999   15.9516 C   0  0  0  0  0  0
  -46.3017   -0.5122   17.2331 C   0  0  0  0  0  0
  -45.3818   -2.0178   15.5692 C   0  0  0  0  0  0
  -48.4390    0.2891   17.1245 C   0  0  0  0  0  0
  -45.0578   -0.5541   17.8973 C   0  0  0  0  0  0
  -44.2026   -2.0378   16.2290 C   0  0  0  0  0  0
  -44.0369   -1.2938   17.4090 C   0  0  0  0  0  0
  -51.3582   -8.9016   19.2906 H   0  0  0  0  0  0
  -52.2055   -6.6177   15.3322 H   0  0  0  0  0  0
  -47.2248   -2.0175   13.6673 H   0  0  0  0  0  0
  1 23  1  0  0  0
  2 14  1  0  0  0
  2 24  1  0  0  0
  3  9  1  0  0  0
  3 10  1  0  0  0
  3 12  1  0  0  0
  3 25  1  0  0  0
  4  8  1  0  0  0
  4 13  1  0  0  0
  4 26  1  0  0  0
  5 18  2  0  0  0
  5 20  1  0  0  0
  6  7  1  0  0  0
  6  8  1  0  0  0
  7  9  1  0  0  0
  8 11  1  0  0  0
 10 14  1  0  0  0
 12 15  1  0  0  0
 13 16  2  0  0  0
 13 17  1  0  0  0
 16 18  1  0  0  0
 16 19  1  0  0  0
 17 20  2  0  0  0
 18 21  1  0  0  0
 19 22  2  0  0  0
 21 23  2  0  0  0
 22 23  1  0  0  0
M  END
>  <CHROM.0>
-57.58388532,59.97330773,-60.87651509

>  <CHROM.1>
175.08969940,179.80605765,-61.13052789,165.04260216,-51.84612089,134.28136755
-168.31736374,170.76618495,-169.35509545,173.72818339,-48.47841364,-3.13028178
16.28678307,-0.30668883,0.51289877,2.32806037

>  <HEADER>
                                                                          

>  <MASTER>
        0    0    0    0    0    0    0    0   50    0   50    0          

>  <Name>
Hydroxychloroquine.pdb

>  <RI>
-4.72595e+08

>  <Rbt.Current_Directory>
/root/miniconda3/envs/rdock/share/rxdock-2013.1.1_148c5bd1-0/data/ligands/prepped_ligands/Hydroxychloroquine

>  <Rbt.Executable>
rbdock/0.1.0

>  <Rbt.Library>
librxdock.so/0.1.0

>  <Rbt.Parameter_File>
/root/miniconda3/envs/rdock/share/rxdock-2013.1.1_148c5bd1-0/data/scripts/dock.prm

>  <Rbt.Receptor>
def.prm

>  <SCORE>
-21.9095

>  <SCORE.INTER>
-14.2921

>  <SCORE.INTER.CONST>
1

>  <SCORE.INTER.POLAR>
-2.20823

>  <SCORE.INTER.REPUL>
0

>  <SCORE.INTER.ROT>
9

>  <SCORE.INTER.VDW>
-21.1841

>  <SCORE.INTER.norm>
-0.621394

>  <SCORE.INTRA>
-6.64205

>  <SCORE.INTRA.DIHEDRAL>
-16.6712

>  <SCORE.INTRA.DIHEDRAL.0>
26.0734

>  <SCORE.INTRA.POLAR>
0

>  <SCORE.INTRA.POLAR.0>
0

>  <SCORE.INTRA.REPUL>
0

>  <SCORE.INTRA.REPUL.0>
0

>  <SCORE.INTRA.VDW>
1.69354

>  <SCORE.INTRA.VDW.0>
1.41869

>  <SCORE.INTRA.norm>
-0.288785

>  <SCORE.RESTR>
0

>  <SCORE.RESTR.CAVITY>
0

>  <SCORE.RESTR.norm>
0

>  <SCORE.SYSTEM>
-0.975423

>  <SCORE.SYSTEM.CONST>
0

>  <SCORE.SYSTEM.DIHEDRAL>
0.0154171

>  <SCORE.SYSTEM.VDW>
-0.983132

>  <SCORE.SYSTEM.norm>
-0.0424097

>  <SCORE.heavy>
23

>  <SCORE.norm>
-0.952589

>  <TITLE>
    3652_D                                                                

$$$$
Hydroxychloroquine.pdb
  RxDock  02242109493D
librxdock.so/0.1.0
 26 27  0  0  0  0  0  0  0  0999 V2000
  -41.1599    1.0085   19.8606 Cl  0  0  0  0  0  0
  -53.5516   -4.3237   17.4308 O   0  0  0  0  0  0
  -51.1264   -5.9023   17.0372 N   0  3  0  0  0  0
  -46.3752   -2.2354   16.9940 N   0  0  0  0  0  0
  -45.9919    1.6771   18.5776 N   0  0  0  0  0  0
  -47.5511   -4.4443   17.2339 C   0  0  0  0  0  0
  -48.8714   -4.9783   17.8131 C   0  0  0  0  0  0
  -47.6646   -2.9496   16.8832 C   0  0  0  0  0  0
  -49.9105   -5.0823   16.6770 C   0  0  0  0  0  0
  -52.2256   -5.7915   16.0057 C   0  0  0  0  0  0
  -48.0697   -2.8451   15.4037 C   0  0  0  0  0  0
  -50.7762   -7.3390   17.3516 C   0  0  0  0  0  0
  -46.2465   -0.9460   17.5244 C   0  0  0  0  0  0
  -53.0299   -4.4797   16.1032 C   0  0  0  0  0  0
  -51.8288   -8.0419   18.2321 C   0  0  0  0  0  0
  -45.0311   -0.5183   18.0901 C   0  0  0  0  0  0
  -47.2848   -0.0493   17.5143 C   0  0  0  0  0  0
  -44.9528    0.7915   18.5917 C   0  0  0  0  0  0
  -43.8869   -1.3433   18.1585 C   0  0  0  0  0  0
  -47.1280    1.2194   18.0375 C   0  0  0  0  0  0
  -43.7334    1.2412   19.1402 C   0  0  0  0  0  0
  -42.7332   -0.8833   18.6908 C   0  0  0  0  0  0
  -42.6540    0.4285   19.1871 C   0  0  0  0  0  0
  -54.0999   -3.4842   17.5117 H   0  0  0  0  0  0
  -51.4559   -5.5442   17.8073 H   0  0  0  0  0  0
  -45.6430   -2.7151   16.9041 H   0  0  0  0  0  0
  1 23  1  0  0  0
  2 14  1  0  0  0
  2 24  1  0  0  0
  3  9  1  0  0  0
  3 10  1  0  0  0
  3 12  1  0  0  0
  3 25  1  0  0  0
  4  8  1  0  0  0
  4 13  1  0  0  0
  4 26  1  0  0  0
  5 18  2  0  0  0
  5 20  1  0  0  0
  6  7  1  0  0  0
  6  8  1  0  0  0
  7  9  1  0  0  0
  8 11  1  0  0  0
 10 14  1  0  0  0
 12 15  1  0  0  0
 13 16  2  0  0  0
 13 17  1  0  0  0
 16 18  1  0  0  0
 16 19  1  0  0  0
 17 20  2  0  0  0
 18 21  1  0  0  0
 19 22  2  0  0  0
 21 23  2  0  0  0
 22 23  1  0  0  0
M  END
>  <CHROM.0>
-177.45547273,-63.25322728,178.28930149

>  <CHROM.1>
-178.60138497,170.11214163,-77.76826981,157.19925555,-139.80657646,154.75433686
72.28493280,150.58496687,165.77381342,-54.97838200,-47.24713373,-2.34157589
17.78240495,-0.62110905,0.26194339,3.10569225

>  <HEADER>
                                                                          

>  <MASTER>
        0    0    0    0    0    0    0    0   50    0   50    0          

>  <Name>
Hydroxychloroquine.pdb

>  <RI>
-4.72595e+08

>  <Rbt.Current_Directory>
/root/miniconda3/envs/rdock/share/rxdock-2013.1.1_148c5bd1-0/data/ligands/prepped_ligands/Hydroxychloroquine

>  <Rbt.Executable>
rbdock/0.1.0

>  <Rbt.Library>
librxdock.so/0.1.0

>  <Rbt.Parameter_File>
/root/miniconda3/envs/rdock/share/rxdock-2013.1.1_148c5bd1-0/data/scripts/dock.prm

>  <Rbt.Receptor>
def.prm

>  <SCORE>
-17.4282

>  <SCORE.INTER>
-7.60611

>  <SCORE.INTER.CONST>
1

>  <SCORE.INTER.POLAR>
-0.748331

>  <SCORE.INTER.REPUL>
0

>  <SCORE.INTER.ROT>
9

>  <SCORE.INTER.VDW>
-19.4618

>  <SCORE.INTER.norm>
-0.3307

>  <SCORE.INTRA>
-8.74596

>  <SCORE.INTRA.DIHEDRAL>
-16.9024

>  <SCORE.INTRA.DIHEDRAL.0>
26.0734

>  <SCORE.INTRA.POLAR>
-0.0386985

>  <SCORE.INTRA.POLAR.0>
0

>  <SCORE.INTRA.REPUL>
0

>  <SCORE.INTRA.REPUL.0>
0

>  <SCORE.INTRA.VDW>
-0.163181

>  <SCORE.INTRA.VDW.0>
1.41869

>  <SCORE.INTRA.norm>
-0.380259

>  <SCORE.RESTR>
0

>  <SCORE.RESTR.CAVITY>
0

>  <SCORE.RESTR.norm>
0

>  <SCORE.SYSTEM>
-1.07614

>  <SCORE.SYSTEM.CONST>
0

>  <SCORE.SYSTEM.DIHEDRAL>
0.0749871

>  <SCORE.SYSTEM.VDW>
-1.11363

>  <SCORE.SYSTEM.norm>
-0.0467887

>  <SCORE.heavy>
23

>  <SCORE.norm>
-0.757748

>  <TITLE>
    3652_D                                                                

$$$$
Hydroxychloroquine.pdb
  RxDock  02242109493D
librxdock.so/0.1.0
 26 27  0  0  0  0  0  0  0  0999 V2000
  -49.3900   -6.2920   18.8679 Cl  0  0  0  0  0  0
  -49.7413   -1.8568   17.5769 O   0  0  0  0  0  0
  -47.9201   -0.0065   19.1086 N   0  3  0  0  0  0
  -46.8315   -1.9639   14.3224 N   0  0  0  0  0  0
  -50.7055   -3.6148   14.8005 N   0  0  0  0  0  0
  -45.8806   -0.2383   15.8837 C   0  0  0  0  0  0
  -47.1486    0.1245   16.6737 C   0  0  0  0  0  0
  -45.9040   -1.7141   15.4459 C   0  0  0  0  0  0
  -47.1679   -0.6840   17.9880 C   0  0  0  0  0  0
  -49.3715    0.2394   18.7656 C   0  0  0  0  0  0
  -44.5052   -2.0671   14.9141 C   0  0  0  0  0  0
  -47.7554   -0.7271   20.4273 C   0  0  0  0  0  0
  -48.1082   -2.5169   14.4796 C   0  0  0  0  0  0
  -50.2077   -1.0524   18.6698 C   0  0  0  0  0  0
  -48.0477    0.1673   21.6487 C   0  0  0  0  0  0
  -48.3758   -3.4258   15.5200 C   0  0  0  0  0  0
  -49.1456   -2.1997   13.6399 C   0  0  0  0  0  0
  -49.6790   -3.9361   15.6414 C   0  0  0  0  0  0
  -47.3960   -3.8309   16.4529 C   0  0  0  0  0  0
  -50.3975   -2.7540   13.8226 C   0  0  0  0  0  0
  -49.9672   -4.8301   16.6940 C   0  0  0  0  0  0
  -47.7034   -4.6897   17.4500 C   0  0  0  0  0  0
  -49.0082   -5.1952   17.5742 C   0  0  0  0  0  0
  -49.8330   -1.3714   16.7006 H   0  0  0  0  0  0
  -47.5359    0.8127   19.2142 H   0  0  0  0  0  0
  -46.6482   -1.5702   13.5570 H   0  0  0  0  0  0
  1 23  1  0  0  0
  2 14  1  0  0  0
  2 24  1  0  0  0
  3  9  1  0  0  0
  3 10  1  0  0  0
  3 12  1  0  0  0
  3 25  1  0  0  0
  4  8  1  0  0  0
  4 13  1  0  0  0
  4 26  1  0  0  0
  5 18  2  0  0  0
  5 20  1  0  0  0
  6  7  1  0  0  0
  6  8  1  0  0  0
  7  9  1  0  0  0
  8 11  1  0  0  0
 10 14  1  0  0  0
 12 15  1  0  0  0
 13 16  2  0  0  0
 13 17  1  0  0  0
 16 18  1  0  0  0
 16 19  1  0  0  0
 17 20  2  0  0  0
 18 21  1  0  0  0
 19 22  2  0  0  0
 21 23  2  0  0  0
 22 23  1  0  0  0
M  END
>  <CHROM.0>
62.41930459,69.81248481,-178.27367695

>  <CHROM.1>
-61.00728609,60.14153263,68.94034470,158.83575342,-100.95373173,-30.50284098
64.72610234,74.72586952,152.41089295,-64.86443698,-48.32649049,-2.48210207
16.98660537,2.15003996,-1.03487318,-2.03129008

>  <HEADER>
                                                                          

>  <MASTER>
        0    0    0    0    0    0    0    0   50    0   50    0          

>  <Name>
Hydroxychloroquine.pdb

>  <RI>
-4.72595e+08

>  <Rbt.Current_Directory>
/root/miniconda3/envs/rdock/share/rxdock-2013.1.1_148c5bd1-0/data/ligands/prepped_ligands/Hydroxychloroquine

>  <Rbt.Executable>
rbdock/0.1.0

>  <Rbt.Library>
librxdock.so/0.1.0

>  <Rbt.Parameter_File>
/root/miniconda3/envs/rdock/share/rxdock-2013.1.1_148c5bd1-0/data/scripts/dock.prm

>  <Rbt.Receptor>
def.prm

>  <SCORE>
-14.7464

>  <SCORE.INTER>
-3.77933

>  <SCORE.INTER.CONST>
1

>  <SCORE.INTER.POLAR>
-0.938011

>  <SCORE.INTER.REPUL>
0

>  <SCORE.INTER.ROT>
9

>  <SCORE.INTER.VDW>
-14.9901

>  <SCORE.INTER.norm>
-0.164319

>  <SCORE.INTRA>
-10.0504

>  <SCORE.INTRA.DIHEDRAL>
-16.7676

>  <SCORE.INTRA.DIHEDRAL.0>
26.0734

>  <SCORE.INTRA.POLAR>
0

>  <SCORE.INTRA.POLAR.0>
0

>  <SCORE.INTRA.REPUL>
0

>  <SCORE.INTRA.REPUL.0>
0

>  <SCORE.INTRA.VDW>
-1.66658

>  <SCORE.INTRA.VDW.0>
1.41869

>  <SCORE.INTRA.norm>
-0.436973

>  <SCORE.RESTR>
0

>  <SCORE.RESTR.CAVITY>
0

>  <SCORE.RESTR.norm>
0

>  <SCORE.SYSTEM>
-0.916702

>  <SCORE.SYSTEM.CONST>
0

>  <SCORE.SYSTEM.DIHEDRAL>
0.483567

>  <SCORE.SYSTEM.POLAR>
-0.00604234

>  <SCORE.SYSTEM.VDW>
-1.13794

>  <SCORE.SYSTEM.norm>
-0.0398566

>  <SCORE.heavy>
23

>  <SCORE.norm>
-0.641149

>  <TITLE>
    3652_D                                                                

$$$$
Hydroxychloroquine.pdb
  RxDock  02242109493D
librxdock.so/0.1.0
 26 27  0  0  0  0  0  0  0  0999 V2000
  -49.2627   -9.0309   17.8594 Cl  0  0  0  0  0  0
  -47.2408    1.1793   17.5075 O   0  0  0  0  0  0
  -44.9899   -0.8728   17.3423 N   0  3  0  0  0  0
  -49.8049   -2.7317   15.4169 N   0  0  0  0  0  0
  -52.6987   -5.4818   16.8400 N   0  0  0  0  0  0
  -47.5054   -2.0748   14.6420 C   0  0  0  0  0  0
  -46.8389   -2.0530   16.0273 C   0  0  0  0  0  0
  -48.6408   -3.1133   14.5899 C   0  0  0  0  0  0
  -45.7693   -0.9409   16.0506 C   0  0  0  0  0  0
  -45.8671   -0.5551   18.5314 C   0  0  0  0  0  0
  -49.1603   -3.1670   13.1438 C   0  0  0  0  0  0
  -44.1426   -2.1046   17.5660 C   0  0  0  0  0  0
  -50.7586   -3.6456   15.8813 C   0  0  0  0  0  0
  -46.3260    0.9160   18.5811 C   0  0  0  0  0  0
  -43.0484   -1.9033   18.6335 C   0  0  0  0  0  0
  -50.3737   -4.9241   16.3260 C   0  0  0  0  0  0
  -52.0952   -3.3403   15.9276 C   0  0  0  0  0  0
  -51.3703   -5.7945   16.7979 C   0  0  0  0  0  0
  -49.0302   -5.3594   16.3326 C   0  0  0  0  0  0
  -53.0140   -4.2582   16.3978 C   0  0  0  0  0  0
  -50.9958   -7.0705   17.2687 C   0  0  0  0  0  0
  -48.7036   -6.5885   16.7895 C   0  0  0  0  0  0
  -49.7001   -7.4563   17.2665 C   0  0  0  0  0  0
  -48.0607    0.6006   17.5757 H   0  0  0  0  0  0
  -44.4104   -0.1756   17.2534 H   0  0  0  0  0  0
  -49.7866   -1.9351   15.7903 H   0  0  0  0  0  0
  1 23  1  0  0  0
  2 14  1  0  0  0
  2 24  1  0  0  0
  3  9  1  0  0  0
  3 10  1  0  0  0
  3 12  1  0  0  0
  3 25  1  0  0  0
  4  8  1  0  0  0
  4 13  1  0  0  0
  4 26  1  0  0  0
  5 18  2  0  0  0
  5 20  1  0  0  0
  6  7  1  0  0  0
  6  8  1  0  0  0
  7  9  1  0  0  0
  8 11  1  0  0  0
 10 14  1  0  0  0
 12 15  1  0  0  0
 13 16  2  0  0  0
 13 17  1  0  0  0
 16 18  1  0  0  0
 16 19  1  0  0  0
 17 20  2  0  0  0
 18 21  1  0  0  0
 19 22  2  0  0  0
 21 23  2  0  0  0
 22 23  1  0  0  0
M  END
>  <CHROM.0>
-63.74073984,-61.16025893,-62.90460084

>  <CHROM.1>
60.75321601,-62.27855951,-73.85068646,163.37957855,-159.00887174,38.98107302
-176.64582231,69.16759497,-176.79702728,68.50639234,-48.51003806,-3.71349058
16.68788982,-2.33570054,-0.38800709,-0.26618197

>  <HEADER>
                                                                          

>  <MASTER>
        0    0    0    0    0    0    0    0   50    0   50    0          

>  <Name>
Hydroxychloroquine.pdb

>  <RI>
-4.72595e+08

>  <Rbt.Current_Directory>
/root/miniconda3/envs/rdock/share/rxdock-2013.1.1_148c5bd1-0/data/ligands/prepped_ligands/Hydroxychloroquine

>  <Rbt.Executable>
rbdock/0.1.0

>  <Rbt.Library>
librxdock.so/0.1.0

>  <Rbt.Parameter_File>
/root/miniconda3/envs/rdock/share/rxdock-2013.1.1_148c5bd1-0/data/scripts/dock.prm

>  <Rbt.Receptor>
def.prm

>  <SCORE>
-15.5217

>  <SCORE.INTER>
-6.05866

>  <SCORE.INTER.CONST>
1

>  <SCORE.INTER.POLAR>
0

>  <SCORE.INTER.REPUL>
0

>  <SCORE.INTER.ROT>
9

>  <SCORE.INTER.VDW>
-20.4587

>  <SCORE.INTER.norm>
-0.26342

>  <SCORE.INTRA>
-8.41394

>  <SCORE.INTRA.DIHEDRAL>
-15.6651

>  <SCORE.INTRA.DIHEDRAL.0>
26.0734

>  <SCORE.INTRA.POLAR>
0

>  <SCORE.INTRA.POLAR.0>
0

>  <SCORE.INTRA.REPUL>
0

>  <SCORE.INTRA.REPUL.0>
0

>  <SCORE.INTRA.VDW>
-0.581386

>  <SCORE.INTRA.VDW.0>
1.41869

>  <SCORE.INTRA.norm>
-0.365824

>  <SCORE.RESTR>
0

>  <SCORE.RESTR.CAVITY>
0

>  <SCORE.RESTR.norm>
0

>  <SCORE.SYSTEM>
-1.04911

>  <SCORE.SYSTEM.CONST>
0

>  <SCORE.SYSTEM.DIHEDRAL>
0.0671395

>  <SCORE.SYSTEM.VDW>
-1.08268

>  <SCORE.SYSTEM.norm>
-0.0456134

>  <SCORE.heavy>
23

>  <SCORE.norm>
-0.674857

>  <TITLE>
    3652_D                                                                

$$$$
Hydroxychloroquine.pdb
  RxDock  02242109493D
librxdock.so/0.1.0
 26 27  0  0  0  0  0  0  0  0999 V2000
  -43.9921    2.0473   18.4223 Cl  0  0  0  0  0  0
  -52.1462   -7.3198   18.5377 O   0  0  0  0  0  0
  -53.5355   -5.6097   15.4485 N   0  3  0  0  0  0
  -49.5065   -1.5975   16.9233 N   0  0  0  0  0  0
  -45.4461   -1.9923   15.7747 N   0  0  0  0  0  0
  -51.2739   -2.4674   15.3615 C   0  0  0  0  0  0
  -51.8193   -3.8105   14.8495 C   0  0  0  0  0  0
  -50.5224   -2.6462   16.6932 C   0  0  0  0  0  0
  -53.0645   -4.1932   15.6768 C   0  0  0  0  0  0
  -53.4994   -6.4420   16.7097 C   0  0  0  0  0  0
  -51.5437   -2.4900   17.8319 C   0  0  0  0  0  0
  -54.8820   -5.6626   14.7634 C   0  0  0  0  0  0
  -48.1653   -1.7204   16.5406 C   0  0  0  0  0  0
  -52.0796   -6.6329   17.2796 C   0  0  0  0  0  0
  -55.2789   -7.0828   14.3130 C   0  0  0  0  0  0
  -47.2015   -0.7980   16.9884 C   0  0  0  0  0  0
  -47.7327   -2.7348   15.7246 C   0  0  0  0  0  0
  -45.8674   -0.9794   16.5875 C   0  0  0  0  0  0
  -47.5169    0.2880   17.8343 C   0  0  0  0  0  0
  -46.4020   -2.8370   15.3688 C   0  0  0  0  0  0
  -44.8868   -0.0758   17.0482 C   0  0  0  0  0  0
  -46.5546    1.1370   18.2580 C   0  0  0  0  0  0
  -45.2198    0.9517   17.8613 C   0  0  0  0  0  0
  -52.6383   -6.7754   19.2258 H   0  0  0  0  0  0
  -52.9393   -5.9863   14.8718 H   0  0  0  0  0  0
  -49.8003   -0.7942   17.1303 H   0  0  0  0  0  0
  1 23  1  0  0  0
  2 14  1  0  0  0
  2 24  1  0  0  0
  3  9  1  0  0  0
  3 10  1  0  0  0
  3 12  1  0  0  0
  3 25  1  0  0  0
  4  8  1  0  0  0
  4 13  1  0  0  0
  4 26  1  0  0  0
  5 18  2  0  0  0
  5 20  1  0  0  0
  6  7  1  0  0  0
  6  8  1  0  0  0
  7  9  1  0  0  0
  8 11  1  0  0  0
 10 14  1  0  0  0
 12 15  1  0  0  0
 13 16  2  0  0  0
 13 17  1  0  0  0
 16 18  1  0  0  0
 16 19  1  0  0  0
 17 20  2  0  0  0
 18 21  1  0  0  0
 19 22  2  0  0  0
 21 23  2  0  0  0
 22 23  1  0  0  0
M  END
>  <CHROM.0>
55.25370917,-61.89253813,177.50662717

>  <CHROM.1>
-63.67201382,119.03174367,-63.38849323,170.59975755,-91.99505442,-168.87389103
75.88160282,154.45903147,-168.98932969,174.47298957,-49.30320930,-2.55485451
16.67328570,0.49569051,0.49185550,0.97442432

>  <HEADER>
                                                                          

>  <MASTER>
        0    0    0    0    0    0    0    0   50    0   50    0          

>  <Name>
Hydroxychloroquine.pdb

>  <RI>
-4.72595e+08

>  <Rbt.Current_Directory>
/root/miniconda3/envs/rdock/share/rxdock-2013.1.1_148c5bd1-0/data/ligands/prepped_ligands/Hydroxychloroquine

>  <Rbt.Executable>
rbdock/0.1.0

>  <Rbt.Library>
librxdock.so/0.1.0

>  <Rbt.Parameter_File>
/root/miniconda3/envs/rdock/share/rxdock-2013.1.1_148c5bd1-0/data/scripts/dock.prm

>  <Rbt.Receptor>
def.prm

>  <SCORE>
-13.122

>  <SCORE.INTER>
-5.9266

>  <SCORE.INTER.CONST>
1

>  <SCORE.INTER.POLAR>
0

>  <SCORE.INTER.REPUL>
0

>  <SCORE.INTER.ROT>
9

>  <SCORE.INTER.VDW>
-20.3266

>  <SCORE.INTER.norm>
-0.257678

>  <SCORE.INTRA>
-6.14758

>  <SCORE.INTRA.DIHEDRAL>
-13.6454

>  <SCORE.INTRA.DIHEDRAL.0>
26.0734

>  <SCORE.INTRA.POLAR>
0

>  <SCORE.INTRA.POLAR.0>
0

>  <SCORE.INTRA.REPUL>
0

>  <SCORE.INTRA.REPUL.0>
0

>  <SCORE.INTRA.VDW>
0.675125

>  <SCORE.INTRA.VDW.0>
1.41869

>  <SCORE.INTRA.norm>
-0.267286

>  <SCORE.RESTR>
0

>  <SCORE.RESTR.CAVITY>
0

>  <SCORE.RESTR.norm>
0

>  <SCORE.SYSTEM>
-1.04777

>  <SCORE.SYSTEM.CONST>
0

>  <SCORE.SYSTEM.DIHEDRAL>
0.0939741

>  <SCORE.SYSTEM.VDW>
-1.09476

>  <SCORE.SYSTEM.norm>
-0.0455553

>  <SCORE.heavy>
23

>  <SCORE.norm>
-0.57052

>  <TITLE>
    3652_D                                                                

$$$$
Hydroxychloroquine.pdb
  RxDock  02242109493D
librxdock.so/0.1.0
 26 27  0  0  0  0  0  0  0  0999 V2000
  -54.9508   -5.2691   15.1169 Cl  0  0  0  0  0  0
  -42.4501   -1.6020   19.3718 O   0  0  0  0  0  0
  -44.7978   -0.0696   19.5543 N   0  3  0  0  0  0
  -48.5491   -3.1726   15.8673 N   0  0  0  0  0  0
  -50.4861   -6.7990   16.8967 N   0  0  0  0  0  0
  -46.9534   -1.5574   16.9466 C   0  0  0  0  0  0
  -45.5336   -1.4406   17.5244 C   0  0  0  0  0  0
  -47.1352   -2.8846   16.1879 C   0  0  0  0  0  0
  -45.3630   -0.0420   18.1542 C   0  0  0  0  0  0
  -43.4485    0.6051   19.6471 C   0  0  0  0  0  0
  -46.4226   -2.7503   14.8320 C   0  0  0  0  0  0
  -45.7765    0.4594   20.5780 C   0  0  0  0  0  0
  -49.1942   -4.3665   16.2121 C   0  0  0  0  0  0
  -42.3053   -0.2183   19.0206 C   0  0  0  0  0  0
  -46.9908   -0.4662   20.7923 C   0  0  0  0  0  0
  -50.5668   -4.5427   15.9568 C   0  0  0  0  0  0
  -48.5264   -5.4084   16.8040 C   0  0  0  0  0  0
  -51.1590   -5.7674   16.3075 C   0  0  0  0  0  0
  -51.3658   -3.5490   15.3497 C   0  0  0  0  0  0
  -49.1859   -6.5784   17.1267 C   0  0  0  0  0  0
  -52.5289   -5.9664   16.0358 C   0  0  0  0  0  0
  -52.6760   -3.7699   15.1031 C   0  0  0  0  0  0
  -53.2661   -4.9969   15.4490 C   0  0  0  0  0  0
  -41.7604   -2.1703   18.9101 H   0  0  0  0  0  0
  -44.6637   -0.9475   19.7574 H   0  0  0  0  0  0
  -49.0515   -2.4916   15.6262 H   0  0  0  0  0  0
  1 23  1  0  0  0
  2 14  1  0  0  0
  2 24  1  0  0  0
  3  9  1  0  0  0
  3 10  1  0  0  0
  3 12  1  0  0  0
  3 25  1  0  0  0
  4  8  1  0  0  0
  4 13  1  0  0  0
  4 26  1  0  0  0
  5 18  2  0  0  0
  5 20  1  0  0  0
  6  7  1  0  0  0
  6  8  1  0  0  0
  7  9  1  0  0  0
  8 11  1  0  0  0
 10 14  1  0  0  0
 12 15  1  0  0  0
 13 16  2  0  0  0
 13 17  1  0  0  0
 16 18  1  0  0  0
 16 19  1  0  0  0
 17 20  2  0  0  0
 18 21  1  0  0  0
 19 22  2  0  0  0
 21 23  2  0  0  0
 22 23  1  0  0  0
M  END
>  <CHROM.0>
50.09788913,60.74146940,176.22129079

>  <CHROM.1>
175.14662833,116.24814967,-73.39888749,69.04025391,-126.20801178,175.71818321
174.62448407,167.68127911,130.48388980,-41.94634565,-48.49774747,-3.08927627
17.10895714,2.53493976,0.07287519,-2.61039346

>  <HEADER>
                                                                          

>  <MASTER>
        0    0    0    0    0    0    0    0   50    0   50    0          

>  <Name>
Hydroxychloroquine.pdb

>  <RI>
-4.72595e+08

>  <Rbt.Current_Directory>
/root/miniconda3/envs/rdock/share/rxdock-2013.1.1_148c5bd1-0/data/ligands/prepped_ligands/Hydroxychloroquine

>  <Rbt.Executable>
rbdock/0.1.0

>  <Rbt.Library>
librxdock.so/0.1.0

>  <Rbt.Parameter_File>
/root/miniconda3/envs/rdock/share/rxdock-2013.1.1_148c5bd1-0/data/scripts/dock.prm

>  <Rbt.Receptor>
def.prm

>  <SCORE>
-16.9554

>  <SCORE.INTER>
-8.84285

>  <SCORE.INTER.CONST>
1

>  <SCORE.INTER.POLAR>
-1.07703

>  <SCORE.INTER.REPUL>
0.0126103

>  <SCORE.INTER.ROT>
9

>  <SCORE.INTER.VDW>
-19.644

>  <SCORE.INTER.norm>
-0.384472

>  <SCORE.INTRA>
-7.27183

>  <SCORE.INTRA.DIHEDRAL>
-12.1657

>  <SCORE.INTRA.DIHEDRAL.0>
26.0734

>  <SCORE.INTRA.POLAR>
-0.159014

>  <SCORE.INTRA.POLAR.0>
0

>  <SCORE.INTRA.REPUL>
0

>  <SCORE.INTRA.REPUL.0>
0

>  <SCORE.INTRA.VDW>
-0.648309

>  <SCORE.INTRA.VDW.0>
1.41869

>  <SCORE.INTRA.norm>
-0.316167

>  <SCORE.RESTR>
0

>  <SCORE.RESTR.CAVITY>
0

>  <SCORE.RESTR.norm>
0

>  <SCORE.SYSTEM>
-0.840731

>  <SCORE.SYSTEM.CONST>
0

>  <SCORE.SYSTEM.DIHEDRAL>
0.284635

>  <SCORE.SYSTEM.VDW>
-0.983049

>  <SCORE.SYSTEM.norm>
-0.0365535

>  <SCORE.heavy>
23

>  <SCORE.norm>
-0.737192

>  <TITLE>
    3652_D                                                                

$$$$
Hydroxychloroquine.pdb
  RxDock  02242109493D
librxdock.so/0.1.0
 26 27  0  0  0  0  0  0  0  0999 V2000
  -46.0726    1.9038   20.1705 Cl  0  0  0  0  0  0
  -47.1722   -7.3754   18.2736 O   0  0  0  0  0  0
  -50.2120   -5.6386   16.8077 N   0  3  0  0  0  0
  -47.0427   -1.3465   14.3024 N   0  0  0  0  0  0
  -43.6731   -1.0446   16.8552 N   0  0  0  0  0  0
  -49.1154   -2.7450   14.5633 C   0  0  0  0  0  0
  -48.9600   -3.6515   15.7952 C   0  0  0  0  0  0
  -48.4376   -1.3813   14.7901 C   0  0  0  0  0  0
  -49.7217   -4.9702   15.5454 C   0  0  0  0  0  0
  -49.0890   -5.9562   17.7682 C   0  0  0  0  0  0
  -49.1948   -0.3371   13.9532 C   0  0  0  0  0  0
  -51.3313   -4.8659   17.4678 C   0  0  0  0  0  0
  -45.9296   -1.2386   15.1448 C   0  0  0  0  0  0
  -48.2705   -7.1998   17.3670 C   0  0  0  0  0  0
  -52.6555   -4.9230   16.6800 C   0  0  0  0  0  0
  -45.9891   -0.4687   16.3212 C   0  0  0  0  0  0
  -44.7452   -1.8733   14.8686 C   0  0  0  0  0  0
  -44.8481   -0.4096   17.1385 C   0  0  0  0  0  0
  -47.1497    0.2302   16.7202 C   0  0  0  0  0  0
  -43.6649   -1.7561   15.7212 C   0  0  0  0  0  0
  -44.9013    0.3394   18.3328 C   0  0  0  0  0  0
  -47.1688    0.9399   17.8701 C   0  0  0  0  0  0
  -46.0291    0.9939   18.6897 C   0  0  0  0  0  0
  -46.5461   -6.5886   18.2460 H   0  0  0  0  0  0
  -50.5680   -6.4369   16.5513 H   0  0  0  0  0  0
  -46.9030   -1.5992   13.4711 H   0  0  0  0  0  0
  1 23  1  0  0  0
  2 14  1  0  0  0
  2 24  1  0  0  0
  3  9  1  0  0  0
  3 10  1  0  0  0
  3 12  1  0  0  0
  3 25  1  0  0  0
  4  8  1  0  0  0
  4 13  1  0  0  0
  4 26  1  0  0  0
  5 18  2  0  0  0
  5 20  1  0  0  0
  6  7  1  0  0  0
  6  8  1  0  0  0
  7  9  1  0  0  0
  8 11  1  0  0  0
 10 14  1  0  0  0
 12 15  1  0  0  0
 13 16  2  0  0  0
 13 17  1  0  0  0
 16 18  1  0  0  0
 16 19  1  0  0  0
 17 20  2  0  0  0
 18 21  1  0  0  0
 19 22  2  0  0  0
 21 23  2  0  0  0
 22 23  1  0  0  0
M  END
>  <CHROM.0>
-63.74699537,-61.16307563,-64.30894669

>  <CHROM.1>
-61.56193136,-58.29154273,-77.35069686,70.69969969,-112.37504832,-35.02918272
176.88943198,92.89398103,-152.40557522,175.94101829,-47.45538671,-2.16128900
16.79605299,-0.27231735,0.94494098,2.09499651

>  <HEADER>
                                                                          

>  <MASTER>
        0    0    0    0    0    0    0    0   50    0   50    0          

>  <Name>
Hydroxychloroquine.pdb

>  <RI>
-4.72595e+08

>  <Rbt.Current_Directory>
/root/miniconda3/envs/rdock/share/rxdock-2013.1.1_148c5bd1-0/data/ligands/prepped_ligands/Hydroxychloroquine

>  <Rbt.Executable>
rbdock/0.1.0

>  <Rbt.Library>
librxdock.so/0.1.0

>  <Rbt.Parameter_File>
/root/miniconda3/envs/rdock/share/rxdock-2013.1.1_148c5bd1-0/data/scripts/dock.prm

>  <Rbt.Receptor>
def.prm

>  <SCORE>
-16.9187

>  <SCORE.INTER>
-9.04575

>  <SCORE.INTER.CONST>
1

>  <SCORE.INTER.POLAR>
-0.938083

>  <SCORE.INTER.REPUL>
0

>  <SCORE.INTER.ROT>
9

>  <SCORE.INTER.VDW>
-20.2563

>  <SCORE.INTER.norm>
-0.393294

>  <SCORE.INTRA>
-6.83288

>  <SCORE.INTRA.DIHEDRAL>
-13.2888

>  <SCORE.INTRA.DIHEDRAL.0>
26.0734

>  <SCORE.INTRA.POLAR>
0

>  <SCORE.INTRA.POLAR.0>
0

>  <SCORE.INTRA.REPUL>
0

>  <SCORE.INTRA.REPUL.0>
0

>  <SCORE.INTRA.VDW>
-0.188459

>  <SCORE.INTRA.VDW.0>
1.41869

>  <SCORE.INTRA.norm>
-0.297082

>  <SCORE.RESTR>
0

>  <SCORE.RESTR.CAVITY>
0

>  <SCORE.RESTR.norm>
0

>  <SCORE.SYSTEM>
-1.04009

>  <SCORE.SYSTEM.CONST>
0

>  <SCORE.SYSTEM.DIHEDRAL>
0.093256

>  <SCORE.SYSTEM.VDW>
-1.08671

>  <SCORE.SYSTEM.norm>
-0.0452212

>  <SCORE.heavy>
23

>  <SCORE.norm>
-0.735596

>  <TITLE>
    3652_D                                                                

$$$$
