Myricetin.pdb
  RxDock  02242113063D
librxdock.so/0.1.0
 29 31  0  0  0  0  0  0  0  0999 V2000
  -51.9640   -4.0001   15.3694 O   0  0  0  0  0  0
  -53.7645   -3.8789   18.6040 O   0  0  0  0  0  0
  -50.7563    0.2074   17.4106 O   0  0  0  0  0  0
  -52.3776   -1.6020   18.5890 O   0  0  0  0  0  0
  -49.1731   -0.9492   13.1160 O   0  0  0  0  0  0
  -56.8658   -6.6789   15.2267 O   0  0  0  0  0  0
  -53.1300   -9.1491   16.8250 O   0  0  0  0  0  0
  -55.7120   -9.0822   15.8949 O   0  0  0  0  0  0
  -51.4152   -1.9033   16.4540 C   0  0  0  0  0  0
  -52.8069   -4.3049   16.4132 C   0  0  0  0  0  0
  -51.3347   -2.7979   15.3832 C   0  0  0  0  0  0
  -53.5542   -5.5717   16.2690 C   0  0  0  0  0  0
  -52.9592   -3.5194   17.5267 C   0  0  0  0  0  0
  -52.2437   -2.2919   17.5788 C   0  0  0  0  0  0
  -50.7158   -0.6844   16.3882 C   0  0  0  0  0  0
  -50.5783   -2.4618   14.2752 C   0  0  0  0  0  0
  -52.9794   -6.7892   16.6028 C   0  0  0  0  0  0
  -54.8650   -5.5453   15.8155 C   0  0  0  0  0  0
  -49.9061   -1.2628   14.2133 C   0  0  0  0  0  0
  -49.9772   -0.3761   15.2766 C   0  0  0  0  0  0
  -55.5832   -6.7133   15.6846 C   0  0  0  0  0  0
  -53.6988   -7.9575   16.4845 C   0  0  0  0  0  0
  -55.0025   -7.9238   16.0202 C   0  0  0  0  0  0
  -53.6778   -3.2296   19.3665 H   0  0  0  0  0  0
  -49.9730    0.1081   18.0296 H   0  0  0  0  0  0
  -49.3081   -1.6204   12.3793 H   0  0  0  0  0  0
  -57.2929   -5.7838   15.3949 H   0  0  0  0  0  0
  -52.2643   -9.0160   17.3185 H   0  0  0  0  0  0
  -55.1092   -9.8865   15.9169 H   0  0  0  0  0  0
  1 10  1  0  0  0
  1 11  1  0  0  0
  2 13  1  0  0  0
  2 24  1  0  0  0
  3 15  1  0  0  0
  3 25  1  0  0  0
  4 14  2  0  0  0
  5 19  1  0  0  0
  5 26  1  0  0  0
  6 21  1  0  0  0
  6 27  1  0  0  0
  7 22  1  0  0  0
  7 28  1  0  0  0
  8 23  1  0  0  0
  8 29  1  0  0  0
  9 11  2  0  0  0
  9 14  1  0  0  0
  9 15  1  0  0  0
 10 12  1  0  0  0
 10 13  2  0  0  0
 11 16  1  0  0  0
 12 17  2  0  0  0
 12 18  1  0  0  0
 13 14  1  0  0  0
 15 20  2  0  0  0
 16 19  2  0  0  0
 17 22  1  0  0  0
 18 21  2  0  0  0
 19 20  1  0  0  0
 21 23  1  0  0  0
 22 23  2  0  0  0
M  END
>  <CHROM.0>
61.49323515,-62.34830272,69.49492288

>  <CHROM.1>
173.99423282,95.65485787,7.70476830,-24.51229561,11.70951872,163.84423094
82.72235349,-52.69597329,-4.17598655,16.16835915,-0.57049490,-0.86405820
-2.34178011

>  <HEADER>
                                                                          

>  <MASTER>
        0    0    0    0    0    0    0    0   33    0   33    0          

>  <Name>
Myricetin.pdb

>  <RI>
-7.87643e+08

>  <Rbt.Current_Directory>
/root/miniconda3/envs/rdock/share/rxdock-2013.1.1_148c5bd1-0/data/ligands/prepped_ligands/Myricetin

>  <Rbt.Executable>
rbdock/0.1.0

>  <Rbt.Library>
librxdock.so/0.1.0

>  <Rbt.Parameter_File>
/root/miniconda3/envs/rdock/share/rxdock-2013.1.1_148c5bd1-0/data/scripts/dock.prm

>  <Rbt.Receptor>
def.prm

>  <SCORE>
-24.1274

>  <SCORE.INTER>
-18.5422

>  <SCORE.INTER.CONST>
1

>  <SCORE.INTER.POLAR>
-1.70418

>  <SCORE.INTER.REPUL>
0.0423797

>  <SCORE.INTER.ROT>
1

>  <SCORE.INTER.VDW>
-19.3599

>  <SCORE.INTER.norm>
-0.806185

>  <SCORE.INTRA>
-4.68304

>  <SCORE.INTRA.DIHEDRAL>
-10.7496

>  <SCORE.INTRA.DIHEDRAL.0>
21.7491

>  <SCORE.INTRA.POLAR>
-0.0637885

>  <SCORE.INTRA.POLAR.0>
0

>  <SCORE.INTRA.REPUL>
0

>  <SCORE.INTRA.REPUL.0>
0

>  <SCORE.INTRA.VDW>
0.908641

>  <SCORE.INTRA.VDW.0>
-1.39731

>  <SCORE.INTRA.norm>
-0.20361

>  <SCORE.RESTR>
0

>  <SCORE.RESTR.CAVITY>
0

>  <SCORE.RESTR.norm>
0

>  <SCORE.SYSTEM>
-0.902075

>  <SCORE.SYSTEM.CONST>
0

>  <SCORE.SYSTEM.DIHEDRAL>
0.242234

>  <SCORE.SYSTEM.POLAR>
-0.0163153

>  <SCORE.SYSTEM.VDW>
-0.967721

>  <SCORE.SYSTEM.norm>
-0.0392207

>  <SCORE.heavy>
23

>  <SCORE.norm>
-1.04902

>  <TITLE>
    5281672_D                                                             

$$$$
Myricetin.pdb
  RxDock  02242113063D
librxdock.so/0.1.0
 29 31  0  0  0  0  0  0  0  0999 V2000
  -48.7451   -5.2422   16.0231 O   0  0  0  0  0  0
  -51.9336   -3.7144   14.9191 O   0  0  0  0  0  0
  -52.2410   -8.2089   17.5413 O   0  0  0  0  0  0
  -52.7144   -5.9660   16.1143 O   0  0  0  0  0  0
  -47.7129   -9.0726   18.5603 O   0  0  0  0  0  0
  -50.2047   -0.3398   12.8509 O   0  0  0  0  0  0
  -45.9351   -1.3384   14.6910 O   0  0  0  0  0  0
  -47.5575    0.3068   13.2086 O   0  0  0  0  0  0
  -50.5564   -6.6737   16.7604 C   0  0  0  0  0  0
  -49.6678   -4.3620   15.5064 C   0  0  0  0  0  0
  -49.2020   -6.3389   16.6788 C   0  0  0  0  0  0
  -49.1016   -3.1296   14.9195 C   0  0  0  0  0  0
  -51.0208   -4.5846   15.5088 C   0  0  0  0  0  0
  -51.4996   -5.7702   16.1304 C   0  0  0  0  0  0
  -50.9382   -7.8399   17.4486 C   0  0  0  0  0  0
  -48.2648   -7.1546   17.2862 C   0  0  0  0  0  0
  -47.7670   -2.7949   15.0959 C   0  0  0  0  0  0
  -49.9104   -2.3012   14.1552 C   0  0  0  0  0  0
  -48.6466   -8.2877   17.9672 C   0  0  0  0  0  0
  -49.9885   -8.6273   18.0439 C   0  0  0  0  0  0
  -49.3999   -1.1538   13.5897 C   0  0  0  0  0  0
  -47.2507   -1.6547   14.5217 C   0  0  0  0  0  0
  -48.0672   -0.8272   13.7700 C   0  0  0  0  0  0
  -52.8806   -4.0278   15.0437 H   0  0  0  0  0  0
  -52.6918   -8.2317   16.6453 H   0  0  0  0  0  0
  -48.1360   -9.8472   19.0425 H   0  0  0  0  0  0
  -51.1603   -0.6539   12.8669 H   0  0  0  0  0  0
  -45.5337   -0.9693   13.8464 H   0  0  0  0  0  0
  -48.2307    0.7561   12.6122 H   0  0  0  0  0  0
  1 10  1  0  0  0
  1 11  1  0  0  0
  2 13  1  0  0  0
  2 24  1  0  0  0
  3 15  1  0  0  0
  3 25  1  0  0  0
  4 14  2  0  0  0
  5 19  1  0  0  0
  5 26  1  0  0  0
  6 21  1  0  0  0
  6 27  1  0  0  0
  7 22  1  0  0  0
  7 28  1  0  0  0
  8 23  1  0  0  0
  8 29  1  0  0  0
  9 11  2  0  0  0
  9 14  1  0  0  0
  9 15  1  0  0  0
 10 12  1  0  0  0
 10 13  2  0  0  0
 11 16  1  0  0  0
 12 17  2  0  0  0
 12 18  1  0  0  0
 13 14  1  0  0  0
 15 20  2  0  0  0
 16 19  2  0  0  0
 17 22  1  0  0  0
 18 21  2  0  0  0
 19 20  1  0  0  0
 21 23  1  0  0  0
 22 23  2  0  0  0
M  END
>  <CHROM.0>
61.68053794,178.22589675,177.87222802

>  <CHROM.1>
-178.32737356,51.61815122,178.29752330,4.91680641,140.41158752,-6.13838922
-10.76235829,-49.50512801,-4.52544951,15.67852697,-1.79545618,-0.14289660
-0.53081911

>  <HEADER>
                                                                          

>  <MASTER>
        0    0    0    0    0    0    0    0   33    0   33    0          

>  <Name>
Myricetin.pdb

>  <RI>
-7.87643e+08

>  <Rbt.Current_Directory>
/root/miniconda3/envs/rdock/share/rxdock-2013.1.1_148c5bd1-0/data/ligands/prepped_ligands/Myricetin

>  <Rbt.Executable>
rbdock/0.1.0

>  <Rbt.Library>
librxdock.so/0.1.0

>  <Rbt.Parameter_File>
/root/miniconda3/envs/rdock/share/rxdock-2013.1.1_148c5bd1-0/data/scripts/dock.prm

>  <Rbt.Receptor>
def.prm

>  <SCORE>
-24.7187

>  <SCORE.INTER>
-17.9085

>  <SCORE.INTER.CONST>
1

>  <SCORE.INTER.POLAR>
-1.60781

>  <SCORE.INTER.REPUL>
0.0315027

>  <SCORE.INTER.ROT>
1

>  <SCORE.INTER.VDW>
-18.9995

>  <SCORE.INTER.norm>
-0.778631

>  <SCORE.INTRA>
-5.72425

>  <SCORE.INTRA.DIHEDRAL>
-16.5767

>  <SCORE.INTRA.DIHEDRAL.0>
21.7491

>  <SCORE.INTRA.POLAR>
-0.101062

>  <SCORE.INTRA.POLAR.0>
0

>  <SCORE.INTRA.REPUL>
0

>  <SCORE.INTRA.REPUL.0>
0

>  <SCORE.INTRA.VDW>
2.90769

>  <SCORE.INTRA.VDW.0>
-1.39731

>  <SCORE.INTRA.norm>
-0.248881

>  <SCORE.RESTR>
0

>  <SCORE.RESTR.CAVITY>
0

>  <SCORE.RESTR.norm>
0

>  <SCORE.SYSTEM>
-1.0859

>  <SCORE.SYSTEM.CONST>
0

>  <SCORE.SYSTEM.DIHEDRAL>
0.0343355

>  <SCORE.SYSTEM.VDW>
-1.10307

>  <SCORE.SYSTEM.norm>
-0.0472131

>  <SCORE.heavy>
23

>  <SCORE.norm>
-1.07473

>  <TITLE>
    5281672_D                                                             

$$$$
Myricetin.pdb
  RxDock  02242113063D
librxdock.so/0.1.0
 29 31  0  0  0  0  0  0  0  0999 V2000
  -52.0758   -3.6859   15.2968 O   0  0  0  0  0  0
  -52.6158   -4.2523   18.9172 O   0  0  0  0  0  0
  -49.8135   -0.0705   17.5638 O   0  0  0  0  0  0
  -51.0977   -2.0614   18.8594 O   0  0  0  0  0  0
  -49.9499   -0.2707   12.8491 O   0  0  0  0  0  0
  -53.1909   -8.9870   16.8716 O   0  0  0  0  0  0
  -56.8004   -6.2682   15.3910 O   0  0  0  0  0  0
  -55.7926   -8.7431   16.0198 O   0  0  0  0  0  0
  -50.9744   -1.8982   16.5071 C   0  0  0  0  0  0
  -52.5290   -4.1979   16.4908 C   0  0  0  0  0  0
  -51.3627   -2.5317   15.3234 C   0  0  0  0  0  0
  -53.4041   -5.3832   16.3753 C   0  0  0  0  0  0
  -52.2038   -3.6787   17.7175 C   0  0  0  0  0  0
  -51.3945   -2.5103   17.7528 C   0  0  0  0  0  0
  -50.2220   -0.7114   16.4392 C   0  0  0  0  0  0
  -51.0094   -1.9729   14.1087 C   0  0  0  0  0  0
  -54.7187   -5.2692   15.9472 C   0  0  0  0  0  0
  -52.8979   -6.6396   16.6751 C   0  0  0  0  0  0
  -50.2830   -0.8057   14.0501 C   0  0  0  0  0  0
  -49.8893   -0.1784   15.2220 C   0  0  0  0  0  0
  -53.6929   -7.7586   16.5632 C   0  0  0  0  0  0
  -55.5125   -6.3876   15.8227 C   0  0  0  0  0  0
  -55.0033   -7.6364   16.1350 C   0  0  0  0  0  0
  -53.1608   -3.6120   19.4681 H   0  0  0  0  0  0
  -50.3246   -0.3675   18.3744 H   0  0  0  0  0  0
  -49.2237    0.4188   12.9422 H   0  0  0  0  0  0
  -52.2479   -8.9233   17.2162 H   0  0  0  0  0  0
  -57.1451   -5.3321   15.5157 H   0  0  0  0  0  0
  -55.2890   -9.5130   15.6144 H   0  0  0  0  0  0
  1 10  1  0  0  0
  1 11  1  0  0  0
  2 13  1  0  0  0
  2 24  1  0  0  0
  3 15  1  0  0  0
  3 25  1  0  0  0
  4 14  2  0  0  0
  5 19  1  0  0  0
  5 26  1  0  0  0
  6 21  1  0  0  0
  6 27  1  0  0  0
  7 22  1  0  0  0
  7 28  1  0  0  0
  8 23  1  0  0  0
  8 29  1  0  0  0
  9 11  2  0  0  0
  9 14  1  0  0  0
  9 15  1  0  0  0
 10 12  1  0  0  0
 10 13  2  0  0  0
 11 16  1  0  0  0
 12 17  2  0  0  0
 12 18  1  0  0  0
 13 14  1  0  0  0
 15 20  2  0  0  0
 16 19  2  0  0  0
 17 22  1  0  0  0
 18 21  2  0  0  0
 19 20  1  0  0  0
 21 23  1  0  0  0
 22 23  2  0  0  0
M  END
>  <CHROM.0>
175.21047510,-61.87151827,72.14185914

>  <CHROM.1>
-120.99362066,-17.13909832,-164.36501906,3.28048047,-20.55800647,-41.72276041
-74.45727317,-52.47939818,-4.02990163,16.23556998,0.31197984,-0.93862346
-1.28256151

>  <HEADER>
                                                                          

>  <MASTER>
        0    0    0    0    0    0    0    0   33    0   33    0          

>  <Name>
Myricetin.pdb

>  <RI>
-7.87643e+08

>  <Rbt.Current_Directory>
/root/miniconda3/envs/rdock/share/rxdock-2013.1.1_148c5bd1-0/data/ligands/prepped_ligands/Myricetin

>  <Rbt.Executable>
rbdock/0.1.0

>  <Rbt.Library>
librxdock.so/0.1.0

>  <Rbt.Parameter_File>
/root/miniconda3/envs/rdock/share/rxdock-2013.1.1_148c5bd1-0/data/scripts/dock.prm

>  <Rbt.Receptor>
def.prm

>  <SCORE>
-22.8358

>  <SCORE.INTER>
-17.8373

>  <SCORE.INTER.CONST>
1

>  <SCORE.INTER.POLAR>
-1.19364

>  <SCORE.INTER.REPUL>
0.00323327

>  <SCORE.INTER.ROT>
1

>  <SCORE.INTER.VDW>
-20.1951

>  <SCORE.INTER.norm>
-0.775535

>  <SCORE.INTRA>
-4.2271

>  <SCORE.INTRA.DIHEDRAL>
-10.2229

>  <SCORE.INTRA.DIHEDRAL.0>
21.7491

>  <SCORE.INTRA.POLAR>
0

>  <SCORE.INTRA.POLAR.0>
0

>  <SCORE.INTRA.REPUL>
0

>  <SCORE.INTRA.REPUL.0>
0

>  <SCORE.INTRA.VDW>
0.884336

>  <SCORE.INTRA.VDW.0>
-1.39731

>  <SCORE.INTRA.norm>
-0.183787

>  <SCORE.RESTR>
0

>  <SCORE.RESTR.CAVITY>
0

>  <SCORE.RESTR.norm>
0

>  <SCORE.SYSTEM>
-0.771367

>  <SCORE.SYSTEM.CONST>
0

>  <SCORE.SYSTEM.DIHEDRAL>
0.419674

>  <SCORE.SYSTEM.POLAR>
-0.0180046

>  <SCORE.SYSTEM.VDW>
-0.919989

>  <SCORE.SYSTEM.norm>
-0.0335377

>  <SCORE.heavy>
23

>  <SCORE.norm>
-0.99286

>  <TITLE>
    5281672_D                                                             

$$$$
Myricetin.pdb
  RxDock  02242113063D
librxdock.so/0.1.0
 29 31  0  0  0  0  0  0  0  0999 V2000
  -53.5568   -4.7426   15.3761 O   0  0  0  0  0  0
  -50.8730   -5.4828   17.8193 O   0  0  0  0  0  0
  -53.9630   -9.4408   16.4201 O   0  0  0  0  0  0
  -52.1256   -7.8218   17.5574 O   0  0  0  0  0  0
  -56.7887   -7.4108   13.2291 O   0  0  0  0  0  0
  -50.5957   -0.8719   18.6391 O   0  0  0  0  0  0
  -50.7782   -0.6633   13.8919 O   0  0  0  0  0  0
  -50.1109    0.4810   16.2964 O   0  0  0  0  0  0
  -53.6885   -7.0951   15.9436 C   0  0  0  0  0  0
  -52.4522   -4.6217   16.1875 C   0  0  0  0  0  0
  -54.1133   -5.9715   15.2293 C   0  0  0  0  0  0
  -51.8239   -3.2841   16.1996 C   0  0  0  0  0  0
  -51.9498   -5.6434   16.9516 C   0  0  0  0  0  0
  -52.5764   -6.9161   16.8568 C   0  0  0  0  0  0
  -54.3351   -8.3277   15.7384 C   0  0  0  0  0  0
  -55.1533   -6.0962   14.3262 C   0  0  0  0  0  0
  -51.5746   -2.5946   15.0219 C   0  0  0  0  0  0
  -51.4987   -2.6915   17.4110 C   0  0  0  0  0  0
  -55.7735   -7.3076   14.1225 C   0  0  0  0  0  0
  -55.3601   -8.4228   14.8348 C   0  0  0  0  0  0
  -50.9230   -1.4408   17.4453 C   0  0  0  0  0  0
  -51.0102   -1.3389   15.0535 C   0  0  0  0  0  0
  -50.6779   -0.7594   16.2659 C   0  0  0  0  0  0
  -50.6157   -6.3501   18.2577 H   0  0  0  0  0  0
  -53.0361   -9.3614   16.7957 H   0  0  0  0  0  0
  -57.2457   -8.3045   13.2933 H   0  0  0  0  0  0
  -50.5644   -1.5555   19.3764 H   0  0  0  0  0  0
  -50.1315    0.0940   14.0295 H   0  0  0  0  0  0
  -49.6613    0.6580   17.1780 H   0  0  0  0  0  0
  1 10  1  0  0  0
  1 11  1  0  0  0
  2 13  1  0  0  0
  2 24  1  0  0  0
  3 15  1  0  0  0
  3 25  1  0  0  0
  4 14  2  0  0  0
  5 19  1  0  0  0
  5 26  1  0  0  0
  6 21  1  0  0  0
  6 27  1  0  0  0
  7 22  1  0  0  0
  7 28  1  0  0  0
  8 23  1  0  0  0
  8 29  1  0  0  0
  9 11  2  0  0  0
  9 14  1  0  0  0
  9 15  1  0  0  0
 10 12  1  0  0  0
 10 13  2  0  0  0
 11 16  1  0  0  0
 12 17  2  0  0  0
 12 18  1  0  0  0
 13 14  1  0  0  0
 15 20  2  0  0  0
 16 19  2  0  0  0
 17 22  1  0  0  0
 18 21  2  0  0  0
 19 20  1  0  0  0
 21 23  1  0  0  0
 22 23  2  0  0  0
M  END
>  <CHROM.0>
-57.81279328,-61.92060153,-62.16771593

>  <CHROM.1>
-177.02538648,-20.00674971,-170.49824074,17.14406817,-163.06141292,18.09880033
-46.35839488,-52.64295692,-4.68558350,15.97244072,2.41377394,0.83012666,2.62291171

>  <HEADER>
                                                                          

>  <MASTER>
        0    0    0    0    0    0    0    0   33    0   33    0          

>  <Name>
Myricetin.pdb

>  <RI>
-7.87643e+08

>  <Rbt.Current_Directory>
/root/miniconda3/envs/rdock/share/rxdock-2013.1.1_148c5bd1-0/data/ligands/prepped_ligands/Myricetin

>  <Rbt.Executable>
rbdock/0.1.0

>  <Rbt.Library>
librxdock.so/0.1.0

>  <Rbt.Parameter_File>
/root/miniconda3/envs/rdock/share/rxdock-2013.1.1_148c5bd1-0/data/scripts/dock.prm

>  <Rbt.Receptor>
def.prm

>  <SCORE>
-29.7968

>  <SCORE.INTER>
-21.1895

>  <SCORE.INTER.CONST>
1

>  <SCORE.INTER.POLAR>
-2.32344

>  <SCORE.INTER.REPUL>
0.018224

>  <SCORE.INTER.ROT>
1

>  <SCORE.INTER.VDW>
-19.7809

>  <SCORE.INTER.norm>
-0.921282

>  <SCORE.INTRA>
-7.53598

>  <SCORE.INTRA.DIHEDRAL>
-17.2075

>  <SCORE.INTRA.DIHEDRAL.0>
21.7491

>  <SCORE.INTRA.POLAR>
-0.112061

>  <SCORE.INTRA.POLAR.0>
0

>  <SCORE.INTRA.REPUL>
0

>  <SCORE.INTRA.REPUL.0>
0

>  <SCORE.INTRA.VDW>
1.44878

>  <SCORE.INTRA.VDW.0>
-1.39731

>  <SCORE.INTRA.norm>
-0.327652

>  <SCORE.RESTR>
0

>  <SCORE.RESTR.CAVITY>
0

>  <SCORE.RESTR.norm>
0

>  <SCORE.SYSTEM>
-1.07132

>  <SCORE.SYSTEM.CONST>
0

>  <SCORE.SYSTEM.DIHEDRAL>
0.0419112

>  <SCORE.SYSTEM.VDW>
-1.09228

>  <SCORE.SYSTEM.norm>
-0.0465793

>  <SCORE.heavy>
23

>  <SCORE.norm>
-1.29551

>  <TITLE>
    5281672_D                                                             

$$$$
Myricetin.pdb
  RxDock  02242113063D
librxdock.so/0.1.0
 29 31  0  0  0  0  0  0  0  0999 V2000
  -49.8366   -4.2149   16.4586 O   0  0  0  0  0  0
  -52.2010   -2.6005   14.1085 O   0  0  0  0  0  0
  -47.4350   -0.5219   14.4781 O   0  0  0  0  0  0
  -50.0139   -1.0885   13.9126 O   0  0  0  0  0  0
  -45.3173   -3.4366   17.5288 O   0  0  0  0  0  0
  -52.7287   -8.0713   17.5251 O   0  0  0  0  0  0
  -55.5271   -5.3562   14.8030 O   0  0  0  0  0  0
  -55.1577   -7.6114   16.3242 O   0  0  0  0  0  0
  -48.6963   -2.3499   15.4119 C   0  0  0  0  0  0
  -50.9466   -3.9515   15.6894 C   0  0  0  0  0  0
  -48.7294   -3.4535   16.2688 C   0  0  0  0  0  0
  -52.0684   -4.8985   15.8588 C   0  0  0  0  0  0
  -51.0440   -2.8904   14.8265 C   0  0  0  0  0  0
  -49.9101   -2.0454   14.6794 C   0  0  0  0  0  0
  -47.5074   -1.6079   15.2890 C   0  0  0  0  0  0
  -47.5892   -3.8012   16.9700 C   0  0  0  0  0  0
  -53.2980   -4.6738   15.2573 C   0  0  0  0  0  0
  -51.8852   -6.0489   16.6122 C   0  0  0  0  0  0
  -46.4266   -3.0773   16.8360 C   0  0  0  0  0  0
  -46.3920   -1.9773   15.9930 C   0  0  0  0  0  0
  -52.9140   -6.9504   16.7733 C   0  0  0  0  0  0
  -54.3249   -5.5792   15.4065 C   0  0  0  0  0  0
  -54.1376   -6.7190   16.1694 C   0  0  0  0  0  0
  -52.1005   -1.7617   13.5636 H   0  0  0  0  0  0
  -46.7667   -0.6454   13.7402 H   0  0  0  0  0  0
  -44.4997   -3.4303   16.9431 H   0  0  0  0  0  0
  -51.8747   -8.0225   18.0545 H   0  0  0  0  0  0
  -55.9686   -6.2179   14.5326 H   0  0  0  0  0  0
  -56.0530   -7.1708   16.2019 H   0  0  0  0  0  0
  1 10  1  0  0  0
  1 11  1  0  0  0
  2 13  1  0  0  0
  2 24  1  0  0  0
  3 15  1  0  0  0
  3 25  1  0  0  0
  4 14  2  0  0  0
  5 19  1  0  0  0
  5 26  1  0  0  0
  6 21  1  0  0  0
  6 27  1  0  0  0
  7 22  1  0  0  0
  7 28  1  0  0  0
  8 23  1  0  0  0
  8 29  1  0  0  0
  9 11  2  0  0  0
  9 14  1  0  0  0
  9 15  1  0  0  0
 10 12  1  0  0  0
 10 13  2  0  0  0
 11 16  1  0  0  0
 12 17  2  0  0  0
 12 18  1  0  0  0
 13 14  1  0  0  0
 15 20  2  0  0  0
 16 19  2  0  0  0
 17 22  1  0  0  0
 18 21  2  0  0  0
 19 20  1  0  0  0
 21 23  1  0  0  0
 22 23  2  0  0  0
M  END
>  <CHROM.0>
71.47902092,-179.19255610,-54.47601987

>  <CHROM.1>
177.17050558,-117.60175364,134.40122309,11.90458674,147.40971062,155.11329454
172.97496298,-50.65502101,-4.05809797,15.77549173,-0.46503592,0.32017955
2.53478647

>  <HEADER>
                                                                          

>  <MASTER>
        0    0    0    0    0    0    0    0   33    0   33    0          

>  <Name>
Myricetin.pdb

>  <RI>
-7.87643e+08

>  <Rbt.Current_Directory>
/root/miniconda3/envs/rdock/share/rxdock-2013.1.1_148c5bd1-0/data/ligands/prepped_ligands/Myricetin

>  <Rbt.Executable>
rbdock/0.1.0

>  <Rbt.Library>
librxdock.so/0.1.0

>  <Rbt.Parameter_File>
/root/miniconda3/envs/rdock/share/rxdock-2013.1.1_148c5bd1-0/data/scripts/dock.prm

>  <Rbt.Receptor>
def.prm

>  <SCORE>
-19.1382

>  <SCORE.INTER>
-14.6492

>  <SCORE.INTER.CONST>
1

>  <SCORE.INTER.POLAR>
-1.56013

>  <SCORE.INTER.REPUL>
0.49363

>  <SCORE.INTER.ROT>
1

>  <SCORE.INTER.VDW>
-18.2129

>  <SCORE.INTER.norm>
-0.636922

>  <SCORE.INTRA>
-3.68672

>  <SCORE.INTRA.DIHEDRAL>
-12.9945

>  <SCORE.INTRA.DIHEDRAL.0>
21.7491

>  <SCORE.INTRA.POLAR>
0

>  <SCORE.INTRA.POLAR.0>
0

>  <SCORE.INTRA.REPUL>
0

>  <SCORE.INTRA.REPUL.0>
0

>  <SCORE.INTRA.VDW>
2.81052

>  <SCORE.INTRA.VDW.0>
-1.39731

>  <SCORE.INTRA.norm>
-0.160292

>  <SCORE.RESTR>
0

>  <SCORE.RESTR.CAVITY>
0

>  <SCORE.RESTR.norm>
0

>  <SCORE.SYSTEM>
-0.802276

>  <SCORE.SYSTEM.CONST>
0

>  <SCORE.SYSTEM.DIHEDRAL>
0.381193

>  <SCORE.SYSTEM.POLAR>
-0.0122987

>  <SCORE.SYSTEM.VDW>
-0.951057

>  <SCORE.SYSTEM.norm>
-0.0348815

>  <SCORE.heavy>
23

>  <SCORE.norm>
-0.832096

>  <TITLE>
    5281672_D                                                             

$$$$
Myricetin.pdb
  RxDock  02242113063D
librxdock.so/0.1.0
 29 31  0  0  0  0  0  0  0  0999 V2000
  -46.4867   -0.0339   16.7920 O   0  0  0  0  0  0
  -45.1352   -2.6807   14.5812 O   0  0  0  0  0  0
  -42.0042   -0.9190   18.3581 O   0  0  0  0  0  0
  -43.1023   -2.1581   16.2250 O   0  0  0  0  0  0
  -44.7806    2.1884   20.5769 O   0  0  0  0  0  0
  -50.2886    0.7334   13.5491 O   0  0  0  0  0  0
  -49.5249   -3.9602   13.5554 O   0  0  0  0  0  0
  -51.0492   -1.8021   12.8099 O   0  0  0  0  0  0
  -44.2332   -0.5433   17.5244 C   0  0  0  0  0  0
  -46.3823   -1.0133   15.8313 C   0  0  0  0  0  0
  -45.4449    0.1430   17.6434 C   0  0  0  0  0  0
  -47.6003   -1.2353   15.0244 C   0  0  0  0  0  0
  -45.2434   -1.7422   15.6038 C   0  0  0  0  0  0
  -44.1231   -1.5079   16.4473 C   0  0  0  0  0  0
  -43.2009   -0.2845   18.4445 C   0  0  0  0  0  0
  -45.6091    1.0544   18.6706 C   0  0  0  0  0  0
  -47.9911   -2.5114   14.6460 C   0  0  0  0  0  0
  -48.3853   -0.1519   14.6575 C   0  0  0  0  0  0
  -44.5988    1.2940   19.5736 C   0  0  0  0  0  0
  -43.3927    0.6210   19.4543 C   0  0  0  0  0  0
  -49.5305   -0.3377   13.9154 C   0  0  0  0  0  0
  -49.1421   -2.7016   13.9142 C   0  0  0  0  0  0
  -49.9137   -1.6141   13.5422 C   0  0  0  0  0  0
  -45.7013   -2.4337   13.7880 H   0  0  0  0  0  0
  -42.0962   -1.8512   17.9988 H   0  0  0  0  0  0
  -45.7030    2.5884   20.5505 H   0  0  0  0  0  0
  -51.0299    0.4635   12.9249 H   0  0  0  0  0  0
  -48.7304   -4.5541   13.3924 H   0  0  0  0  0  0
  -51.5841   -2.5804   13.1546 H   0  0  0  0  0  0
  1 10  1  0  0  0
  1 11  1  0  0  0
  2 13  1  0  0  0
  2 24  1  0  0  0
  3 15  1  0  0  0
  3 25  1  0  0  0
  4 14  2  0  0  0
  5 19  1  0  0  0
  5 26  1  0  0  0
  6 21  1  0  0  0
  6 27  1  0  0  0
  7 22  1  0  0  0
  7 28  1  0  0  0
  8 23  1  0  0  0
  8 29  1  0  0  0
  9 11  2  0  0  0
  9 14  1  0  0  0
  9 15  1  0  0  0
 10 12  1  0  0  0
 10 13  2  0  0  0
 11 16  1  0  0  0
 12 17  2  0  0  0
 12 18  1  0  0  0
 13 14  1  0  0  0
 15 20  2  0  0  0
 16 19  2  0  0  0
 17 22  1  0  0  0
 18 21  2  0  0  0
 19 20  1  0  0  0
 21 23  1  0  0  0
 22 23  2  0  0  0
M  END
>  <CHROM.0>
-58.27305876,-176.86106595,-53.10789305

>  <CHROM.1>
30.80659829,-32.48589669,1.02803842,173.37773626,-32.79232460,-136.65001497
-141.22671253,-46.43300164,-0.86106420,16.10420168,0.64109391,-0.41782180
0.70944144

>  <HEADER>
                                                                          

>  <MASTER>
        0    0    0    0    0    0    0    0   33    0   33    0          

>  <Name>
Myricetin.pdb

>  <RI>
-7.87643e+08

>  <Rbt.Current_Directory>
/root/miniconda3/envs/rdock/share/rxdock-2013.1.1_148c5bd1-0/data/ligands/prepped_ligands/Myricetin

>  <Rbt.Executable>
rbdock/0.1.0

>  <Rbt.Library>
librxdock.so/0.1.0

>  <Rbt.Parameter_File>
/root/miniconda3/envs/rdock/share/rxdock-2013.1.1_148c5bd1-0/data/scripts/dock.prm

>  <Rbt.Receptor>
def.prm

>  <SCORE>
-26.4838

>  <SCORE.INTER>
-20.0302

>  <SCORE.INTER.CONST>
1

>  <SCORE.INTER.POLAR>
-2.66656

>  <SCORE.INTER.REPUL>
0

>  <SCORE.INTER.ROT>
1

>  <SCORE.INTER.VDW>
-17.3639

>  <SCORE.INTER.norm>
-0.870876

>  <SCORE.INTRA>
-5.46763

>  <SCORE.INTRA.DIHEDRAL>
-13.4854

>  <SCORE.INTRA.DIHEDRAL.0>
21.7491

>  <SCORE.INTRA.POLAR>
-0.084542

>  <SCORE.INTRA.POLAR.0>
0

>  <SCORE.INTRA.REPUL>
0

>  <SCORE.INTRA.REPUL.0>
0

>  <SCORE.INTRA.VDW>
1.56251

>  <SCORE.INTRA.VDW.0>
-1.39731

>  <SCORE.INTRA.norm>
-0.237723

>  <SCORE.RESTR>
0

>  <SCORE.RESTR.CAVITY>
0

>  <SCORE.RESTR.norm>
0

>  <SCORE.SYSTEM>
-0.986004

>  <SCORE.SYSTEM.CONST>
0

>  <SCORE.SYSTEM.DIHEDRAL>
0.165223

>  <SCORE.SYSTEM.POLAR>
-0.0143046

>  <SCORE.SYSTEM.VDW>
-1.01998

>  <SCORE.SYSTEM.norm>
-0.0428697

>  <SCORE.heavy>
23

>  <SCORE.norm>
-1.15147

>  <TITLE>
    5281672_D                                                             

$$$$
Myricetin.pdb
  RxDock  02242113063D
librxdock.so/0.1.0
 29 31  0  0  0  0  0  0  0  0999 V2000
  -46.3385   -0.6497   17.4864 O   0  0  0  0  0  0
  -43.1727   -2.0300   16.1478 O   0  0  0  0  0  0
  -47.5061   -2.9403   13.3975 O   0  0  0  0  0  0
  -44.9956   -2.8605   14.3885 O   0  0  0  0  0  0
  -50.7693   -0.6132   15.8921 O   0  0  0  0  0  0
  -41.8706    2.4892   18.7108 O   0  0  0  0  0  0
  -42.8512   -1.0980   21.6744 O   0  0  0  0  0  0
  -41.5047    1.2308   21.1266 O   0  0  0  0  0  0
  -46.8422   -1.8102   15.4191 C   0  0  0  0  0  0
  -45.0046   -0.9349   17.3067 C   0  0  0  0  0  0
  -47.2130   -1.0404   16.5250 C   0  0  0  0  0  0
  -44.0975   -0.3696   18.3273 C   0  0  0  0  0  0
  -44.5179   -1.6943   16.2740 C   0  0  0  0  0  0
  -45.4418   -2.1686   15.3031 C   0  0  0  0  0  0
  -47.8203   -2.1829   14.4791 C   0  0  0  0  0  0
  -48.5323   -0.6503   16.6671 C   0  0  0  0  0  0
  -43.9077   -0.9974   19.5496 C   0  0  0  0  0  0
  -43.4005    0.7980   18.0522 C   0  0  0  0  0  0
  -49.4814   -1.0092   15.7376 C   0  0  0  0  0  0
  -49.1189   -1.7792   14.6433 C   0  0  0  0  0  0
  -42.5415    1.3356   18.9848 C   0  0  0  0  0  0
  -43.0403   -0.4689   20.4795 C   0  0  0  0  0  0
  -42.3573    0.7028   20.2018 C   0  0  0  0  0  0
  -43.0533   -2.9765   15.8311 H   0  0  0  0  0  0
  -48.3088   -3.1387   12.8293 H   0  0  0  0  0  0
  -51.3510   -0.9540   15.1458 H   0  0  0  0  0  0
  -41.9564    2.7435   17.7412 H   0  0  0  0  0  0
  -42.1626   -0.6255   22.2342 H   0  0  0  0  0  0
  -41.9074    1.2172   22.0476 H   0  0  0  0  0  0
  1 10  1  0  0  0
  1 11  1  0  0  0
  2 13  1  0  0  0
  2 24  1  0  0  0
  3 15  1  0  0  0
  3 25  1  0  0  0
  4 14  2  0  0  0
  5 19  1  0  0  0
  5 26  1  0  0  0
  6 21  1  0  0  0
  6 27  1  0  0  0
  7 22  1  0  0  0
  7 28  1  0  0  0
  8 23  1  0  0  0
  8 29  1  0  0  0
  9 11  2  0  0  0
  9 14  1  0  0  0
  9 15  1  0  0  0
 10 12  1  0  0  0
 10 13  2  0  0  0
 11 16  1  0  0  0
 12 17  2  0  0  0
 12 18  1  0  0  0
 13 14  1  0  0  0
 15 20  2  0  0  0
 16 19  2  0  0  0
 17 22  1  0  0  0
 18 21  2  0  0  0
 19 20  1  0  0  0
 21 23  1  0  0  0
 22 23  2  0  0  0
M  END
>  <CHROM.0>
-62.04357950,62.76261864,-178.18826938

>  <CHROM.1>
140.28615701,178.90651453,-179.44847399,-10.89292889,177.37615686,135.58656900
81.85061884,-45.27577166,-0.80858378,17.26834829,2.39201601,0.12095941,-2.13077385

>  <HEADER>
                                                                          

>  <MASTER>
        0    0    0    0    0    0    0    0   33    0   33    0          

>  <Name>
Myricetin.pdb

>  <RI>
-7.87643e+08

>  <Rbt.Current_Directory>
/root/miniconda3/envs/rdock/share/rxdock-2013.1.1_148c5bd1-0/data/ligands/prepped_ligands/Myricetin

>  <Rbt.Executable>
rbdock/0.1.0

>  <Rbt.Library>
librxdock.so/0.1.0

>  <Rbt.Parameter_File>
/root/miniconda3/envs/rdock/share/rxdock-2013.1.1_148c5bd1-0/data/scripts/dock.prm

>  <Rbt.Receptor>
def.prm

>  <SCORE>
-16.5559

>  <SCORE.INTER>
-10.8852

>  <SCORE.INTER.CONST>
1

>  <SCORE.INTER.POLAR>
-0.822732

>  <SCORE.INTER.REPUL>
0.00547749

>  <SCORE.INTER.ROT>
1

>  <SCORE.INTER.VDW>
-14.5153

>  <SCORE.INTER.norm>
-0.473269

>  <SCORE.INTRA>
-4.68401

>  <SCORE.INTRA.DIHEDRAL>
-12.5916

>  <SCORE.INTRA.DIHEDRAL.0>
21.7491

>  <SCORE.INTRA.POLAR>
0

>  <SCORE.INTRA.POLAR.0>
0

>  <SCORE.INTRA.REPUL>
0

>  <SCORE.INTRA.REPUL.0>
0

>  <SCORE.INTRA.VDW>
1.61177

>  <SCORE.INTRA.VDW.0>
-1.39731

>  <SCORE.INTRA.norm>
-0.203652

>  <SCORE.RESTR>
0.057378

>  <SCORE.RESTR.CAVITY>
0.057378

>  <SCORE.RESTR.norm>
0.0024947

>  <SCORE.SYSTEM>
-1.04411

>  <SCORE.SYSTEM.CONST>
0

>  <SCORE.SYSTEM.DIHEDRAL>
0.0562167

>  <SCORE.SYSTEM.POLAR>
-0.006228

>  <SCORE.SYSTEM.VDW>
-1.05105

>  <SCORE.SYSTEM.norm>
-0.0453963

>  <SCORE.heavy>
23

>  <SCORE.norm>
-0.719823

>  <TITLE>
    5281672_D                                                             

$$$$
Myricetin.pdb
  RxDock  02242113063D
librxdock.so/0.1.0
 29 31  0  0  0  0  0  0  0  0999 V2000
  -49.3719   -4.6382   15.5246 O   0  0  0  0  0  0
  -52.3900   -2.7061   14.5878 O   0  0  0  0  0  0
  -53.1447   -7.2202   17.0829 O   0  0  0  0  0  0
  -53.3940   -4.8892   15.7430 O   0  0  0  0  0  0
  -48.7208   -8.6491   17.9044 O   0  0  0  0  0  0
  -46.1843   -0.9724   14.5292 O   0  0  0  0  0  0
  -50.2084    0.4666   12.4438 O   0  0  0  0  0  0
  -47.5407    0.8416   12.9726 O   0  0  0  0  0  0
  -51.3157   -5.8695   16.2859 C   0  0  0  0  0  0
  -50.1996   -3.6376   15.0698 C   0  0  0  0  0  0
  -49.9345   -5.6950   16.1636 C   0  0  0  0  0  0
  -49.5100   -2.4615   14.4994 C   0  0  0  0  0  0
  -51.5686   -3.6982   15.1162 C   0  0  0  0  0  0
  -52.1647   -4.8394   15.7194 C   0  0  0  0  0  0
  -51.8109   -7.0052   16.9524 C   0  0  0  0  0  0
  -49.0817   -6.6365   16.7105 C   0  0  0  0  0  0
  -50.1866   -1.5416   13.7118 C   0  0  0  0  0  0
  -48.1661   -2.2556   14.7753 C   0  0  0  0  0  0
  -49.5733   -7.7391   17.3709 C   0  0  0  0  0  0
  -50.9428   -7.9197   17.4876 C   0  0  0  0  0  0
  -47.5072   -1.1599   14.2632 C   0  0  0  0  0  0
  -49.5335   -0.4387   13.2083 C   0  0  0  0  0  0
  -48.1895   -0.2465   13.4787 C   0  0  0  0  0  0
  -53.2652   -3.0806   14.2646 H   0  0  0  0  0  0
  -53.6877   -6.5269   16.6023 H   0  0  0  0  0  0
  -48.0795   -9.0012   17.2143 H   0  0  0  0  0  0
  -45.8371   -0.1334   14.0962 H   0  0  0  0  0  0
  -49.6564    1.2897   12.2749 H   0  0  0  0  0  0
  -47.7039    0.9404   11.9855 H   0  0  0  0  0  0
  1 10  1  0  0  0
  1 11  1  0  0  0
  2 13  1  0  0  0
  2 24  1  0  0  0
  3 15  1  0  0  0
  3 25  1  0  0  0
  4 14  2  0  0  0
  5 19  1  0  0  0
  5 26  1  0  0  0
  6 21  1  0  0  0
  6 27  1  0  0  0
  7 22  1  0  0  0
  7 28  1  0  0  0
  8 23  1  0  0  0
  8 29  1  0  0  0
  9 11  2  0  0  0
  9 14  1  0  0  0
  9 15  1  0  0  0
 10 12  1  0  0  0
 10 13  2  0  0  0
 11 16  1  0  0  0
 12 17  2  0  0  0
 12 18  1  0  0  0
 13 14  1  0  0  0
 15 20  2  0  0  0
 16 19  2  0  0  0
 17 22  1  0  0  0
 18 21  2  0  0  0
 19 20  1  0  0  0
 21 23  1  0  0  0
 22 23  2  0  0  0
M  END
>  <CHROM.0>
-177.44860052,-52.79414397,175.15109854

>  <CHROM.1>
149.77072240,4.08232662,-55.13814413,-179.74227436,170.48518663,130.05100475
163.71730295,-50.02535023,-3.81410302,15.25625194,-1.89154627,-0.08285520
-0.50693851

>  <HEADER>
                                                                          

>  <MASTER>
        0    0    0    0    0    0    0    0   33    0   33    0          

>  <Name>
Myricetin.pdb

>  <RI>
-7.87643e+08

>  <Rbt.Current_Directory>
/root/miniconda3/envs/rdock/share/rxdock-2013.1.1_148c5bd1-0/data/ligands/prepped_ligands/Myricetin

>  <Rbt.Executable>
rbdock/0.1.0

>  <Rbt.Library>
librxdock.so/0.1.0

>  <Rbt.Parameter_File>
/root/miniconda3/envs/rdock/share/rxdock-2013.1.1_148c5bd1-0/data/scripts/dock.prm

>  <Rbt.Receptor>
def.prm

>  <SCORE>
-28.6363

>  <SCORE.INTER>
-22.8415

>  <SCORE.INTER.CONST>
1

>  <SCORE.INTER.POLAR>
-3.25777

>  <SCORE.INTER.REPUL>
0.0803706

>  <SCORE.INTER.ROT>
1

>  <SCORE.INTER.VDW>
-18.5669

>  <SCORE.INTER.norm>
-0.993107

>  <SCORE.INTRA>
-4.95421

>  <SCORE.INTRA.DIHEDRAL>
-13.9622

>  <SCORE.INTRA.DIHEDRAL.0>
21.7491

>  <SCORE.INTRA.POLAR>
-0.0789204

>  <SCORE.INTRA.POLAR.0>
0

>  <SCORE.INTRA.REPUL>
0

>  <SCORE.INTRA.REPUL.0>
0

>  <SCORE.INTRA.VDW>
2.29522

>  <SCORE.INTRA.VDW.0>
-1.39731

>  <SCORE.INTRA.norm>
-0.215401

>  <SCORE.RESTR>
0

>  <SCORE.RESTR.CAVITY>
0

>  <SCORE.RESTR.norm>
0

>  <SCORE.SYSTEM>
-0.840658

>  <SCORE.SYSTEM.CONST>
0

>  <SCORE.SYSTEM.DIHEDRAL>
0.32918

>  <SCORE.SYSTEM.VDW>
-1.00525

>  <SCORE.SYSTEM.norm>
-0.0365503

>  <SCORE.heavy>
23

>  <SCORE.norm>
-1.24506

>  <TITLE>
    5281672_D                                                             

$$$$
Myricetin.pdb
  RxDock  02242113063D
librxdock.so/0.1.0
 29 31  0  0  0  0  0  0  0  0999 V2000
  -52.0798   -4.0529   15.1465 O   0  0  0  0  0  0
  -48.8090   -5.0472   16.5723 O   0  0  0  0  0  0
  -52.8236   -8.2745   17.3721 O   0  0  0  0  0  0
  -50.4384   -7.0089   17.3500 O   0  0  0  0  0  0
  -56.3035   -6.1304   15.0097 O   0  0  0  0  0  0
  -50.4991    0.1771   13.1562 O   0  0  0  0  0  0
  -46.4688   -1.9142   14.5690 O   0  0  0  0  0  0
  -47.7573    0.1796   13.3474 O   0  0  0  0  0  0
  -52.3698   -6.1777   16.2758 C   0  0  0  0  0  0
  -50.7393   -4.0862   15.4550 C   0  0  0  0  0  0
  -52.8482   -5.1105   15.5106 C   0  0  0  0  0  0
  -49.9421   -2.9640   14.9174 C   0  0  0  0  0  0
  -50.1538   -5.0676   16.2127 C   0  0  0  0  0  0
  -50.9718   -6.1413   16.6593 C   0  0  0  0  0  0
  -53.2432   -7.2254   16.6201 C   0  0  0  0  0  0
  -54.1680   -5.1115   15.0972 C   0  0  0  0  0  0
  -48.5580   -2.9540   15.0105 C   0  0  0  0  0  0
  -50.5841   -1.9100   14.2839 C   0  0  0  0  0  0
  -55.0135   -6.1453   15.4284 C   0  0  0  0  0  0
  -54.5447   -7.2019   16.1937 C   0  0  0  0  0  0
  -49.8592   -0.8597   13.7658 C   0  0  0  0  0  0
  -47.8297   -1.9112   14.4828 C   0  0  0  0  0  0
  -48.4786   -0.8575   13.8624 C   0  0  0  0  0  0
  -48.5516   -5.8651   17.0971 H   0  0  0  0  0  0
  -52.0485   -8.0311   17.9607 H   0  0  0  0  0  0
  -56.8665   -6.7818   15.5296 H   0  0  0  0  0  0
  -49.8557    0.9063   12.8984 H   0  0  0  0  0  0
  -46.0442   -1.6513   13.6965 H   0  0  0  0  0  0
  -46.9101   -0.1424   12.9123 H   0  0  0  0  0  0
  1 10  1  0  0  0
  1 11  1  0  0  0
  2 13  1  0  0  0
  2 24  1  0  0  0
  3 15  1  0  0  0
  3 25  1  0  0  0
  4 14  2  0  0  0
  5 19  1  0  0  0
  5 26  1  0  0  0
  6 21  1  0  0  0
  6 27  1  0  0  0
  7 22  1  0  0  0
  7 28  1  0  0  0
  8 23  1  0  0  0
  8 29  1  0  0  0
  9 11  2  0  0  0
  9 14  1  0  0  0
  9 15  1  0  0  0
 10 12  1  0  0  0
 10 13  2  0  0  0
 11 16  1  0  0  0
 12 17  2  0  0  0
 12 18  1  0  0  0
 13 14  1  0  0  0
 15 20  2  0  0  0
 16 19  2  0  0  0
 17 22  1  0  0  0
 18 21  2  0  0  0
 19 20  1  0  0  0
 21 23  1  0  0  0
 22 23  2  0  0  0
M  END
>  <CHROM.0>
-67.11131666,-60.70770787,173.94256975

>  <CHROM.1>
-177.81082968,25.90468194,-163.39040630,175.07574911,135.10940631,-141.09498293
-172.03941205,-51.01471608,-4.14015153,15.30925062,2.31029482,0.19508872
2.59674781

>  <HEADER>
                                                                          

>  <MASTER>
        0    0    0    0    0    0    0    0   33    0   33    0          

>  <Name>
Myricetin.pdb

>  <RI>
-7.87643e+08

>  <Rbt.Current_Directory>
/root/miniconda3/envs/rdock/share/rxdock-2013.1.1_148c5bd1-0/data/ligands/prepped_ligands/Myricetin

>  <Rbt.Executable>
rbdock/0.1.0

>  <Rbt.Library>
librxdock.so/0.1.0

>  <Rbt.Parameter_File>
/root/miniconda3/envs/rdock/share/rxdock-2013.1.1_148c5bd1-0/data/scripts/dock.prm

>  <Rbt.Receptor>
def.prm

>  <SCORE>
-30.6021

>  <SCORE.INTER>
-24.0802

>  <SCORE.INTER.CONST>
1

>  <SCORE.INTER.POLAR>
-3.16136

>  <SCORE.INTER.REPUL>
0.0983057

>  <SCORE.INTER.ROT>
1

>  <SCORE.INTER.VDW>
-20.2231

>  <SCORE.INTER.norm>
-1.04696

>  <SCORE.INTRA>
-5.55411

>  <SCORE.INTRA.DIHEDRAL>
-16.0363

>  <SCORE.INTRA.DIHEDRAL.0>
21.7491

>  <SCORE.INTRA.POLAR>
-0.0925972

>  <SCORE.INTRA.POLAR.0>
0

>  <SCORE.INTRA.REPUL>
0

>  <SCORE.INTRA.REPUL.0>
0

>  <SCORE.INTRA.VDW>
2.77888

>  <SCORE.INTRA.VDW.0>
-1.39731

>  <SCORE.INTRA.norm>
-0.241483

>  <SCORE.RESTR>
0

>  <SCORE.RESTR.CAVITY>
0

>  <SCORE.RESTR.norm>
0

>  <SCORE.SYSTEM>
-0.967784

>  <SCORE.SYSTEM.CONST>
0

>  <SCORE.SYSTEM.DIHEDRAL>
0.225777

>  <SCORE.SYSTEM.VDW>
-1.08067

>  <SCORE.SYSTEM.norm>
-0.0420775

>  <SCORE.heavy>
23

>  <SCORE.norm>
-1.33052

>  <TITLE>
    5281672_D                                                             

$$$$
Myricetin.pdb
  RxDock  02242113063D
librxdock.so/0.1.0
 29 31  0  0  0  0  0  0  0  0999 V2000
  -50.0669   -4.7157   15.7538 O   0  0  0  0  0  0
  -52.7080   -2.7285   14.0817 O   0  0  0  0  0  0
  -54.2278   -6.9921   16.6670 O   0  0  0  0  0  0
  -54.0569   -4.7654   15.1491 O   0  0  0  0  0  0
  -50.1590   -8.5512   18.4842 O   0  0  0  0  0  0
  -46.3306   -1.7195   14.5813 O   0  0  0  0  0  0
  -50.1151    0.5680   12.8327 O   0  0  0  0  0  0
  -47.4070    0.4391   13.2638 O   0  0  0  0  0  0
  -52.1962   -5.7932   16.1770 C   0  0  0  0  0  0
  -50.7223   -3.7176   15.0701 C   0  0  0  0  0  0
  -50.8110   -5.6919   16.3325 C   0  0  0  0  0  0
  -49.8609   -2.6228   14.5767 C   0  0  0  0  0  0
  -52.0732   -3.7120   14.8354 C   0  0  0  0  0  0
  -52.8478   -4.7736   15.3779 C   0  0  0  0  0  0
  -52.8848   -6.8490   16.8019 C   0  0  0  0  0  0
  -50.1463   -6.6250   17.1072 C   0  0  0  0  0  0
  -50.3955   -1.5302   13.9098 C   0  0  0  0  0  0
  -48.4934   -2.6720   14.8049 C   0  0  0  0  0  0
  -50.8281   -7.6484   17.7246 C   0  0  0  0  0  0
  -52.2011   -7.7568   17.5666 C   0  0  0  0  0  0
  -47.6740   -1.6568   14.3635 C   0  0  0  0  0  0
  -49.5804   -0.5077   13.4780 C   0  0  0  0  0  0
  -48.2153   -0.5699   13.6994 C   0  0  0  0  0  0
  -53.6175   -3.0252   13.7731 H   0  0  0  0  0  0
  -54.6377   -6.2377   16.1481 H   0  0  0  0  0  0
  -50.7829   -9.2346   18.8782 H   0  0  0  0  0  0
  -45.8820   -0.8445   14.3689 H   0  0  0  0  0  0
  -51.0880    0.4253   12.6233 H   0  0  0  0  0  0
  -46.6222    0.0835   12.7458 H   0  0  0  0  0  0
  1 10  1  0  0  0
  1 11  1  0  0  0
  2 13  1  0  0  0
  2 24  1  0  0  0
  3 15  1  0  0  0
  3 25  1  0  0  0
  4 14  2  0  0  0
  5 19  1  0  0  0
  5 26  1  0  0  0
  6 21  1  0  0  0
  6 27  1  0  0  0
  7 22  1  0  0  0
  7 28  1  0  0  0
  8 23  1  0  0  0
  8 29  1  0  0  0
  9 11  2  0  0  0
  9 14  1  0  0  0
  9 15  1  0  0  0
 10 12  1  0  0  0
 10 13  2  0  0  0
 11 16  1  0  0  0
 12 17  2  0  0  0
 12 18  1  0  0  0
 13 14  1  0  0  0
 15 20  2  0  0  0
 16 19  2  0  0  0
 17 22  1  0  0  0
 18 21  2  0  0  0
 19 20  1  0  0  0
 21 23  1  0  0  0
 22 23  2  0  0  0
M  END
>  <CHROM.0>
-176.31697906,65.42561638,-59.60505419

>  <CHROM.1>
162.04976340,-4.29812399,179.49217930,-169.09321998,-8.17874700,49.81091539
-177.84817839,-50.60424880,-3.89438798,15.30460778,-2.04336384,-0.15313986
-0.56389119

>  <HEADER>
                                                                          

>  <MASTER>
        0    0    0    0    0    0    0    0   33    0   33    0          

>  <Name>
Myricetin.pdb

>  <RI>
-7.87643e+08

>  <Rbt.Current_Directory>
/root/miniconda3/envs/rdock/share/rxdock-2013.1.1_148c5bd1-0/data/ligands/prepped_ligands/Myricetin

>  <Rbt.Executable>
rbdock/0.1.0

>  <Rbt.Library>
librxdock.so/0.1.0

>  <Rbt.Parameter_File>
/root/miniconda3/envs/rdock/share/rxdock-2013.1.1_148c5bd1-0/data/scripts/dock.prm

>  <Rbt.Receptor>
def.prm

>  <SCORE>
-32.1283

>  <SCORE.INTER>
-25.2192

>  <SCORE.INTER.CONST>
1

>  <SCORE.INTER.POLAR>
-3.2928

>  <SCORE.INTER.REPUL>
0.0163407

>  <SCORE.INTER.ROT>
1

>  <SCORE.INTER.VDW>
-20.5054

>  <SCORE.INTER.norm>
-1.09649

>  <SCORE.INTRA>
-5.92077

>  <SCORE.INTRA.DIHEDRAL>
-18.2123

>  <SCORE.INTRA.DIHEDRAL.0>
21.7491

>  <SCORE.INTRA.POLAR>
0

>  <SCORE.INTRA.POLAR.0>
0

>  <SCORE.INTRA.REPUL>
0

>  <SCORE.INTRA.REPUL.0>
0

>  <SCORE.INTRA.VDW>
3.18537

>  <SCORE.INTRA.VDW.0>
-1.39731

>  <SCORE.INTRA.norm>
-0.257425

>  <SCORE.RESTR>
0

>  <SCORE.RESTR.CAVITY>
0

>  <SCORE.RESTR.norm>
0

>  <SCORE.SYSTEM>
-0.98833

>  <SCORE.SYSTEM.CONST>
0

>  <SCORE.SYSTEM.DIHEDRAL>
0.175215

>  <SCORE.SYSTEM.POLAR>
-0.00178526

>  <SCORE.SYSTEM.VDW>
-1.06987

>  <SCORE.SYSTEM.norm>
-0.0429709

>  <SCORE.heavy>
23

>  <SCORE.norm>
-1.39688

>  <TITLE>
    5281672_D                                                             

$$$$
