Myricetin.pdb
  RxDock  02242109563D
librxdock.so/0.1.0
 29 31  0  0  0  0  0  0  0  0999 V2000
  -47.3549   -1.4332   16.9377 O   0  0  0  0  0  0
  -44.4859   -2.2561   14.7443 O   0  0  0  0  0  0
  -49.2270   -3.6130   13.0554 O   0  0  0  0  0  0
  -46.5774   -3.2319   13.4095 O   0  0  0  0  0  0
  -52.0141   -1.9401   16.4790 O   0  0  0  0  0  0
  -42.0541   -1.8947   19.0811 O   0  0  0  0  0  0
  -44.0548    2.3830   18.5234 O   0  0  0  0  0  0
  -42.0668    0.8089   19.5752 O   0  0  0  0  0  0
  -48.2180   -2.5251   14.9536 C   0  0  0  0  0  0
  -46.0855   -1.5109   16.4129 C   0  0  0  0  0  0
  -48.3890   -1.8865   16.1849 C   0  0  0  0  0  0
  -45.0269   -0.8841   17.2316 C   0  0  0  0  0  0
  -45.7861   -2.1270   15.2251 C   0  0  0  0  0  0
  -46.8596   -2.6694   14.4670 C   0  0  0  0  0  0
  -49.3484   -2.9769   14.2482 C   0  0  0  0  0  0
  -49.6670   -1.7009   16.6799 C   0  0  0  0  0  0
  -45.0248    0.4798   17.4852 C   0  0  0  0  0  0
  -44.0278   -1.6746   17.7807 C   0  0  0  0  0  0
  -50.7685   -2.1354   15.9790 C   0  0  0  0  0  0
  -50.6026   -2.7762   14.7609 C   0  0  0  0  0  0
  -43.0382   -1.1123   18.5562 C   0  0  0  0  0  0
  -44.0436    1.0432   18.2701 C   0  0  0  0  0  0
  -43.0436    0.2491   18.8048 C   0  0  0  0  0  0
  -43.8550   -1.6215   15.2023 H   0  0  0  0  0  0
  -48.9936   -2.9807   12.3123 H   0  0  0  0  0  0
  -52.7106   -2.4076   15.9242 H   0  0  0  0  0  0
  -41.7383   -2.5828   18.4187 H   0  0  0  0  0  0
  -44.7482    2.8563   17.9703 H   0  0  0  0  0  0
  -42.1763    1.8061   19.6400 H   0  0  0  0  0  0
  1 10  1  0  0  0
  1 11  1  0  0  0
  2 13  1  0  0  0
  2 24  1  0  0  0
  3 15  1  0  0  0
  3 25  1  0  0  0
  4 14  2  0  0  0
  5 19  1  0  0  0
  5 26  1  0  0  0
  6 21  1  0  0  0
  6 27  1  0  0  0
  7 22  1  0  0  0
  7 28  1  0  0  0
  8 23  1  0  0  0
  8 29  1  0  0  0
  9 11  2  0  0  0
  9 14  1  0  0  0
  9 15  1  0  0  0
 10 12  1  0  0  0
 10 13  2  0  0  0
 11 16  1  0  0  0
 12 17  2  0  0  0
 12 18  1  0  0  0
 13 14  1  0  0  0
 15 20  2  0  0  0
 16 19  2  0  0  0
 17 22  1  0  0  0
 18 21  2  0  0  0
 19 20  1  0  0  0
 21 23  1  0  0  0
 22 23  2  0  0  0
M  END
>  <CHROM.0>
69.66077166,63.69416417,-56.84727051

>  <CHROM.1>
-17.49598678,-74.36602057,-172.77918511,40.97302616,-8.40767897,177.73739121
-63.51204606,-46.37769284,-1.43364856,16.47659448,2.53325274,0.03909309,-2.26152223

>  <HEADER>
                                                                          

>  <MASTER>
        0    0    0    0    0    0    0    0   33    0   33    0          

>  <Name>
Myricetin.pdb

>  <RI>
-2.91798e+08

>  <Rbt.Current_Directory>
/root/miniconda3/envs/rdock/share/rxdock-2013.1.1_148c5bd1-0/data/ligands/prepped_ligands/Myricetin

>  <Rbt.Executable>
rbdock/0.1.0

>  <Rbt.Library>
librxdock.so/0.1.0

>  <Rbt.Parameter_File>
/root/miniconda3/envs/rdock/share/rxdock-2013.1.1_148c5bd1-0/data/scripts/dock.prm

>  <Rbt.Receptor>
def.prm

>  <SCORE>
-19.3705

>  <SCORE.INTER>
-13.7519

>  <SCORE.INTER.CONST>
1

>  <SCORE.INTER.POLAR>
-1.89299

>  <SCORE.INTER.REPUL>
0

>  <SCORE.INTER.ROT>
1

>  <SCORE.INTER.VDW>
-13.7157

>  <SCORE.INTER.norm>
-0.597907

>  <SCORE.INTRA>
-4.78255

>  <SCORE.INTRA.DIHEDRAL>
-10.767

>  <SCORE.INTRA.DIHEDRAL.0>
21.7491

>  <SCORE.INTRA.POLAR>
-0.111899

>  <SCORE.INTRA.POLAR.0>
0

>  <SCORE.INTRA.REPUL>
0

>  <SCORE.INTRA.REPUL.0>
0

>  <SCORE.INTRA.VDW>
0.981427

>  <SCORE.INTRA.VDW.0>
-1.39731

>  <SCORE.INTRA.norm>
-0.207937

>  <SCORE.RESTR>
0

>  <SCORE.RESTR.CAVITY>
0

>  <SCORE.RESTR.norm>
0

>  <SCORE.SYSTEM>
-0.836134

>  <SCORE.SYSTEM.CONST>
0

>  <SCORE.SYSTEM.DIHEDRAL>
0.307808

>  <SCORE.SYSTEM.POLAR>
-0.00803875

>  <SCORE.SYSTEM.VDW>
-0.962706

>  <SCORE.SYSTEM.norm>
-0.0363537

>  <SCORE.heavy>
23

>  <SCORE.norm>
-0.842197

>  <TITLE>
    5281672_D                                                             

$$$$
Myricetin.pdb
  RxDock  02242109563D
librxdock.so/0.1.0
 29 31  0  0  0  0  0  0  0  0999 V2000
  -52.0195   -3.8381   14.8625 O   0  0  0  0  0  0
  -53.1801   -4.3144   18.3476 O   0  0  0  0  0  0
  -50.5700    0.0736   17.2968 O   0  0  0  0  0  0
  -51.8870   -1.9849   18.4452 O   0  0  0  0  0  0
  -49.7929   -0.3234   12.6572 O   0  0  0  0  0  0
  -56.1029   -6.8946   13.7345 O   0  0  0  0  0  0
  -53.4387   -9.0343   17.0415 O   0  0  0  0  0  0
  -55.4626   -9.1366   15.1895 O   0  0  0  0  0  0
  -51.3365   -1.9021   16.1506 C   0  0  0  0  0  0
  -52.6412   -4.3463   15.9798 C   0  0  0  0  0  0
  -51.4338   -2.6174   14.9539 C   0  0  0  0  0  0
  -53.3655   -5.6178   15.7729 C   0  0  0  0  0  0
  -52.6032   -3.7493   17.2135 C   0  0  0  0  0  0
  -51.9264   -2.5045   17.3304 C   0  0  0  0  0  0
  -50.6975   -0.6487   16.1548 C   0  0  0  0  0  0
  -50.9101   -2.0736   13.7952 C   0  0  0  0  0  0
  -53.0483   -6.7545   16.5021 C   0  0  0  0  0  0
  -54.4006   -5.6738   14.8510 C   0  0  0  0  0  0
  -50.2964   -0.8420   13.8048 C   0  0  0  0  0  0
  -50.1911   -0.1328   14.9913 C   0  0  0  0  0  0
  -55.0961   -6.8457   14.6509 C   0  0  0  0  0  0
  -53.7497   -7.9244   16.3130 C   0  0  0  0  0  0
  -54.7736   -7.9752   15.3828 C   0  0  0  0  0  0
  -53.2503   -3.6508   19.0995 H   0  0  0  0  0  0
  -50.6087   -0.5046   18.1157 H   0  0  0  0  0  0
  -50.5012    0.1567   12.1286 H   0  0  0  0  0  0
  -56.6044   -7.7653   13.7848 H   0  0  0  0  0  0
  -52.6172   -8.8883   17.6022 H   0  0  0  0  0  0
  -55.0345   -9.9035   15.6787 H   0  0  0  0  0  0
  1 10  1  0  0  0
  1 11  1  0  0  0
  2 13  1  0  0  0
  2 24  1  0  0  0
  3 15  1  0  0  0
  3 25  1  0  0  0
  4 14  2  0  0  0
  5 19  1  0  0  0
  5 26  1  0  0  0
  6 21  1  0  0  0
  6 27  1  0  0  0
  7 22  1  0  0  0
  7 28  1  0  0  0
  8 23  1  0  0  0
  8 29  1  0  0  0
  9 11  2  0  0  0
  9 14  1  0  0  0
  9 15  1  0  0  0
 10 12  1  0  0  0
 10 13  2  0  0  0
 11 16  1  0  0  0
 12 17  2  0  0  0
 12 18  1  0  0  0
 13 14  1  0  0  0
 15 20  2  0  0  0
 16 19  2  0  0  0
 17 22  1  0  0  0
 18 21  2  0  0  0
 19 20  1  0  0  0
 21 23  1  0  0  0
 22 23  2  0  0  0
M  END
>  <CHROM.0>
-69.73793310,67.64073539,-60.63789727

>  <CHROM.1>
-166.28328495,23.85881234,84.71897537,-171.99021340,-6.27014155,171.25321385
121.58898311,-52.59135783,-4.17523422,15.73546842,0.08904066,-1.04841748
-1.49780673

>  <HEADER>
                                                                          

>  <MASTER>
        0    0    0    0    0    0    0    0   33    0   33    0          

>  <Name>
Myricetin.pdb

>  <RI>
-2.91798e+08

>  <Rbt.Current_Directory>
/root/miniconda3/envs/rdock/share/rxdock-2013.1.1_148c5bd1-0/data/ligands/prepped_ligands/Myricetin

>  <Rbt.Executable>
rbdock/0.1.0

>  <Rbt.Library>
librxdock.so/0.1.0

>  <Rbt.Parameter_File>
/root/miniconda3/envs/rdock/share/rxdock-2013.1.1_148c5bd1-0/data/scripts/dock.prm

>  <Rbt.Receptor>
def.prm

>  <SCORE>
-24.577

>  <SCORE.INTER>
-17.7915

>  <SCORE.INTER.CONST>
1

>  <SCORE.INTER.POLAR>
-1.64678

>  <SCORE.INTER.REPUL>
0.0783895

>  <SCORE.INTER.ROT>
1

>  <SCORE.INTER.VDW>
-18.9844

>  <SCORE.INTER.norm>
-0.773543

>  <SCORE.INTRA>
-5.96673

>  <SCORE.INTRA.DIHEDRAL>
-12.1527

>  <SCORE.INTRA.DIHEDRAL.0>
21.7491

>  <SCORE.INTRA.POLAR>
-0.196569

>  <SCORE.INTRA.POLAR.0>
0

>  <SCORE.INTRA.REPUL>
0

>  <SCORE.INTRA.REPUL.0>
0

>  <SCORE.INTRA.VDW>
0.777974

>  <SCORE.INTRA.VDW.0>
-1.39731

>  <SCORE.INTRA.norm>
-0.259423

>  <SCORE.RESTR>
0

>  <SCORE.RESTR.CAVITY>
0

>  <SCORE.RESTR.norm>
0

>  <SCORE.SYSTEM>
-0.818775

>  <SCORE.SYSTEM.CONST>
0

>  <SCORE.SYSTEM.DIHEDRAL>
0.521831

>  <SCORE.SYSTEM.VDW>
-1.07969

>  <SCORE.SYSTEM.norm>
-0.0355989

>  <SCORE.heavy>
23

>  <SCORE.norm>
-1.06856

>  <TITLE>
    5281672_D                                                             

$$$$
Myricetin.pdb
  RxDock  02242109563D
librxdock.so/0.1.0
 29 31  0  0  0  0  0  0  0  0999 V2000
  -47.4683    0.2670   13.4824 O   0  0  0  0  0  0
  -51.0407   -0.7025   13.3503 O   0  0  0  0  0  0
  -47.8060   -3.9097   15.8845 O   0  0  0  0  0  0
  -49.9086   -2.7144   14.6839 O   0  0  0  0  0  0
  -43.6899   -1.6198   15.5654 O   0  0  0  0  0  0
  -47.9792    4.4092   10.8457 O   0  0  0  0  0  0
  -52.4751    3.1124   11.6928 O   0  0  0  0  0  0
  -50.6763    4.8864   10.6188 O   0  0  0  0  0  0
  -47.7218   -1.8241   14.6813 C   0  0  0  0  0  0
  -48.8261    0.2904   13.2617 C   0  0  0  0  0  0
  -46.9565   -0.7476   14.2242 C   0  0  0  0  0  0
  -49.3282    1.4884   12.5569 C   0  0  0  0  0  0
  -49.6798   -0.7121   13.6440 C   0  0  0  0  0  0
  -49.1354   -1.8144   14.3581 C   0  0  0  0  0  0
  -47.1030   -2.8405   15.4319 C   0  0  0  0  0  0
  -45.6084   -0.6972   14.5288 C   0  0  0  0  0  0
  -50.6877    1.7366   12.4368 C   0  0  0  0  0  0
  -48.4259    2.3985   12.0257 C   0  0  0  0  0  0
  -45.0125   -1.6894   15.2731 C   0  0  0  0  0  0
  -45.7666   -2.7627   15.7218 C   0  0  0  0  0  0
  -48.8725    3.5272   11.3750 C   0  0  0  0  0  0
  -51.1373    2.8704   11.7973 C   0  0  0  0  0  0
  -50.2305    3.7678   11.2598 C   0  0  0  0  0  0
  -51.5074   -1.5116   13.7220 H   0  0  0  0  0  0
  -47.2733   -4.4678   16.5258 H   0  0  0  0  0  0
  -43.3097   -2.5286   15.7683 H   0  0  0  0  0  0
  -47.0401    4.0505   10.8856 H   0  0  0  0  0  0
  -53.0114    2.2692   11.8028 H   0  0  0  0  0  0
  -51.6795    4.8985   10.5556 H   0  0  0  0  0  0
  1 10  1  0  0  0
  1 11  1  0  0  0
  2 13  1  0  0  0
  2 24  1  0  0  0
  3 15  1  0  0  0
  3 25  1  0  0  0
  4 14  2  0  0  0
  5 19  1  0  0  0
  5 26  1  0  0  0
  6 21  1  0  0  0
  6 27  1  0  0  0
  7 22  1  0  0  0
  7 28  1  0  0  0
  8 23  1  0  0  0
  8 29  1  0  0  0
  9 11  2  0  0  0
  9 14  1  0  0  0
  9 15  1  0  0  0
 10 12  1  0  0  0
 10 13  2  0  0  0
 11 16  1  0  0  0
 12 17  2  0  0  0
 12 18  1  0  0  0
 13 14  1  0  0  0
 15 20  2  0  0  0
 16 19  2  0  0  0
 17 22  1  0  0  0
 18 21  2  0  0  0
 19 20  1  0  0  0
 21 23  1  0  0  0
 22 23  2  0  0  0
M  END
>  <CHROM.0>
-55.71492554,-85.86229825,-64.74193513

>  <CHROM.1>
-179.16124163,-170.54351030,-156.95710508,8.14180494,-21.07648387,176.06650431
-170.68988660,-48.53733906,0.31108318,13.40531425,-1.05931645,-0.14045902
-0.51071670

>  <HEADER>
                                                                          

>  <MASTER>
        0    0    0    0    0    0    0    0   33    0   33    0          

>  <Name>
Myricetin.pdb

>  <RI>
-2.91798e+08

>  <Rbt.Current_Directory>
/root/miniconda3/envs/rdock/share/rxdock-2013.1.1_148c5bd1-0/data/ligands/prepped_ligands/Myricetin

>  <Rbt.Executable>
rbdock/0.1.0

>  <Rbt.Library>
librxdock.so/0.1.0

>  <Rbt.Parameter_File>
/root/miniconda3/envs/rdock/share/rxdock-2013.1.1_148c5bd1-0/data/scripts/dock.prm

>  <Rbt.Receptor>
def.prm

>  <SCORE>
-26.2201

>  <SCORE.INTER>
-20.3089

>  <SCORE.INTER.CONST>
1

>  <SCORE.INTER.POLAR>
-3.05184

>  <SCORE.INTER.REPUL>
0

>  <SCORE.INTER.ROT>
1

>  <SCORE.INTER.VDW>
-16.3327

>  <SCORE.INTER.norm>
-0.882996

>  <SCORE.INTRA>
-7.09387

>  <SCORE.INTRA.DIHEDRAL>
-20.0332

>  <SCORE.INTRA.DIHEDRAL.0>
21.7491

>  <SCORE.INTRA.POLAR>
-0.109515

>  <SCORE.INTRA.POLAR.0>
0

>  <SCORE.INTRA.REPUL>
0

>  <SCORE.INTRA.REPUL.0>
0

>  <SCORE.INTRA.VDW>
3.29508

>  <SCORE.INTRA.VDW.0>
-1.39731

>  <SCORE.INTRA.norm>
-0.308429

>  <SCORE.RESTR>
0.950113

>  <SCORE.RESTR.CAVITY>
0.950113

>  <SCORE.RESTR.norm>
0.0413093

>  <SCORE.SYSTEM>
0.232582

>  <SCORE.SYSTEM.CONST>
0

>  <SCORE.SYSTEM.DIHEDRAL>
2.92734

>  <SCORE.SYSTEM.VDW>
-1.23109

>  <SCORE.SYSTEM.norm>
0.0101122

>  <SCORE.heavy>
23

>  <SCORE.norm>
-1.14

>  <TITLE>
    5281672_D                                                             

$$$$
Myricetin.pdb
  RxDock  02242109563D
librxdock.so/0.1.0
 29 31  0  0  0  0  0  0  0  0999 V2000
  -48.0649   -3.7150   16.2206 O   0  0  0  0  0  0
  -51.3675   -3.3795   14.5776 O   0  0  0  0  0  0
  -47.7607    0.1955   13.4021 O   0  0  0  0  0  0
  -50.0083   -1.2792   13.6559 O   0  0  0  0  0  0
  -44.0277   -1.3173   15.8645 O   0  0  0  0  0  0
  -48.9209   -8.4725   17.5297 O   0  0  0  0  0  0
  -53.2535   -6.5513   17.1423 O   0  0  0  0  0  0
  -51.6451   -8.6642   17.8387 O   0  0  0  0  0  0
  -47.9880   -1.7717   14.7743 C   0  0  0  0  0  0
  -49.3505   -3.9631   15.7978 C   0  0  0  0  0  0
  -47.3983   -2.6701   15.6679 C   0  0  0  0  0  0
  -49.9676   -5.1886   16.3466 C   0  0  0  0  0  0
  -50.0431   -3.1486   14.9394 C   0  0  0  0  0  0
  -49.3723   -2.0103   14.4144 C   0  0  0  0  0  0
  -47.2242   -0.7069   14.2624 C   0  0  0  0  0  0
  -46.0722   -2.5011   16.0221 C   0  0  0  0  0  0
  -51.3415   -5.2936   16.5070 C   0  0  0  0  0  0
  -49.1636   -6.2671   16.6855 C   0  0  0  0  0  0
  -45.3282   -1.4637   15.5085 C   0  0  0  0  0  0
  -45.9116   -0.5660   14.6279 C   0  0  0  0  0  0
  -49.7194   -7.4229   17.1880 C   0  0  0  0  0  0
  -51.9012   -6.4522   16.9977 C   0  0  0  0  0  0
  -51.0910   -7.5198   17.3445 C   0  0  0  0  0  0
  -51.6767   -2.7382   13.8679 H   0  0  0  0  0  0
  -48.7370    0.0297   13.2412 H   0  0  0  0  0  0
  -43.6235   -0.4945   15.4508 H   0  0  0  0  0  0
  -49.4534   -9.2233   17.9355 H   0  0  0  0  0  0
  -53.7203   -5.7234   16.8145 H   0  0  0  0  0  0
  -52.6449   -8.6636   17.7335 H   0  0  0  0  0  0
  1 10  1  0  0  0
  1 11  1  0  0  0
  2 13  1  0  0  0
  2 24  1  0  0  0
  3 15  1  0  0  0
  3 25  1  0  0  0
  4 14  2  0  0  0
  5 19  1  0  0  0
  5 26  1  0  0  0
  6 21  1  0  0  0
  6 27  1  0  0  0
  7 22  1  0  0  0
  7 28  1  0  0  0
  8 23  1  0  0  0
  8 29  1  0  0  0
  9 11  2  0  0  0
  9 14  1  0  0  0
  9 15  1  0  0  0
 10 12  1  0  0  0
 10 13  2  0  0  0
 11 16  1  0  0  0
 12 17  2  0  0  0
 12 18  1  0  0  0
 13 14  1  0  0  0
 15 20  2  0  0  0
 16 19  2  0  0  0
 17 22  1  0  0  0
 18 21  2  0  0  0
 19 20  1  0  0  0
 21 23  1  0  0  0
 22 23  2  0  0  0
M  END
>  <CHROM.0>
-55.88134872,173.55157993,-64.94065565

>  <CHROM.1>
-173.92394497,3.25167291,-177.16666226,176.34004498,2.58218827,-169.03983138
151.95196876,-49.04267240,-3.94879332,15.79750175,-0.96005518,0.20227689
2.62323504

>  <HEADER>
                                                                          

>  <MASTER>
        0    0    0    0    0    0    0    0   33    0   33    0          

>  <Name>
Myricetin.pdb

>  <RI>
-2.91798e+08

>  <Rbt.Current_Directory>
/root/miniconda3/envs/rdock/share/rxdock-2013.1.1_148c5bd1-0/data/ligands/prepped_ligands/Myricetin

>  <Rbt.Executable>
rbdock/0.1.0

>  <Rbt.Library>
librxdock.so/0.1.0

>  <Rbt.Parameter_File>
/root/miniconda3/envs/rdock/share/rxdock-2013.1.1_148c5bd1-0/data/scripts/dock.prm

>  <Rbt.Receptor>
def.prm

>  <SCORE>
-21.8546

>  <SCORE.INTER>
-12.4133

>  <SCORE.INTER.CONST>
1

>  <SCORE.INTER.POLAR>
-0.472906

>  <SCORE.INTER.REPUL>
0.0564409

>  <SCORE.INTER.ROT>
1

>  <SCORE.INTER.VDW>
-17.4876

>  <SCORE.INTER.norm>
-0.539707

>  <SCORE.INTRA>
-8.49282

>  <SCORE.INTRA.DIHEDRAL>
-20.3712

>  <SCORE.INTRA.DIHEDRAL.0>
21.7491

>  <SCORE.INTRA.POLAR>
-0.19991

>  <SCORE.INTRA.POLAR.0>
0

>  <SCORE.INTRA.REPUL>
0

>  <SCORE.INTRA.REPUL.0>
0

>  <SCORE.INTRA.VDW>
2.37247

>  <SCORE.INTRA.VDW.0>
-1.39731

>  <SCORE.INTRA.norm>
-0.369253

>  <SCORE.RESTR>
0

>  <SCORE.RESTR.CAVITY>
0

>  <SCORE.RESTR.norm>
0

>  <SCORE.SYSTEM>
-0.94854

>  <SCORE.SYSTEM.CONST>
0

>  <SCORE.SYSTEM.DIHEDRAL>
0.306004

>  <SCORE.SYSTEM.VDW>
-1.10154

>  <SCORE.SYSTEM.norm>
-0.0412409

>  <SCORE.heavy>
23

>  <SCORE.norm>
-0.950201

>  <TITLE>
    5281672_D                                                             

$$$$
Myricetin.pdb
  RxDock  02242109563D
librxdock.so/0.1.0
 29 31  0  0  0  0  0  0  0  0999 V2000
  -50.6703   -3.9472   16.6226 O   0  0  0  0  0  0
  -47.6319   -5.8355   17.5828 O   0  0  0  0  0  0
  -52.1374   -8.4566   17.5398 O   0  0  0  0  0  0
  -49.5755   -7.6465   17.8076 O   0  0  0  0  0  0
  -55.1771   -5.1761   16.0281 O   0  0  0  0  0  0
  -47.8021    0.2112   17.7871 O   0  0  0  0  0  0
  -45.3799   -2.4819   14.7060 O   0  0  0  0  0  0
  -45.6940   -0.1107   16.0532 O   0  0  0  0  0  0
  -51.3256   -6.2333   17.0901 C   0  0  0  0  0  0
  -49.3588   -4.2876   16.8619 C   0  0  0  0  0  0
  -51.6088   -4.9253   16.6873 C   0  0  0  0  0  0
  -48.3785   -3.2024   16.6494 C   0  0  0  0  0  0
  -48.9557   -5.5300   17.2790 C   0  0  0  0  0  0
  -49.9470   -6.5394   17.4196 C   0  0  0  0  0  0
  -52.3658   -7.1791   17.1424 C   0  0  0  0  0  0
  -52.9039   -4.5898   16.3370 C   0  0  0  0  0  0
  -47.3109   -3.3566   15.7770 C   0  0  0  0  0  0
  -48.5391   -1.9951   17.3136 C   0  0  0  0  0  0
  -53.9140   -5.5232   16.3798 C   0  0  0  0  0  0
  -53.6386   -6.8197   16.7862 C   0  0  0  0  0  0
  -47.6434   -0.9667   17.1211 C   0  0  0  0  0  0
  -46.4205   -2.3260   15.5733 C   0  0  0  0  0  0
  -46.5812   -1.1284   16.2487 C   0  0  0  0  0  0
  -47.0813   -5.0062   17.7233 H   0  0  0  0  0  0
  -51.1581   -8.6722   17.5738 H   0  0  0  0  0  0
  -55.2112   -4.2437   15.6524 H   0  0  0  0  0  0
  -47.3789    0.9758   17.2887 H   0  0  0  0  0  0
  -45.4805   -3.3181   14.1570 H   0  0  0  0  0  0
  -45.5996    0.4578   16.8770 H   0  0  0  0  0  0
  1 10  1  0  0  0
  1 11  1  0  0  0
  2 13  1  0  0  0
  2 24  1  0  0  0
  3 15  1  0  0  0
  3 25  1  0  0  0
  4 14  2  0  0  0
  5 19  1  0  0  0
  5 26  1  0  0  0
  6 21  1  0  0  0
  6 27  1  0  0  0
  7 22  1  0  0  0
  7 28  1  0  0  0
  8 23  1  0  0  0
  8 29  1  0  0  0
  9 11  2  0  0  0
  9 14  1  0  0  0
  9 15  1  0  0  0
 10 12  1  0  0  0
 10 13  2  0  0  0
 11 16  1  0  0  0
 12 17  2  0  0  0
 12 18  1  0  0  0
 13 14  1  0  0  0
 15 20  2  0  0  0
 16 19  2  0  0  0
 17 22  1  0  0  0
 18 21  2  0  0  0
 19 20  1  0  0  0
 21 23  1  0  0  0
 22 23  2  0  0  0
M  END
>  <CHROM.0>
178.49760157,62.34561929,-77.28633581

>  <CHROM.1>
16.81220618,-13.02455672,6.92606588,-154.50736906,10.97895266,30.41903334
-123.83471335,-49.64190592,-4.23540163,16.72798012,2.43955118,0.02642374
2.99570960

>  <HEADER>
                                                                          

>  <MASTER>
        0    0    0    0    0    0    0    0   33    0   33    0          

>  <Name>
Myricetin.pdb

>  <RI>
-2.91798e+08

>  <Rbt.Current_Directory>
/root/miniconda3/envs/rdock/share/rxdock-2013.1.1_148c5bd1-0/data/ligands/prepped_ligands/Myricetin

>  <Rbt.Executable>
rbdock/0.1.0

>  <Rbt.Library>
librxdock.so/0.1.0

>  <Rbt.Parameter_File>
/root/miniconda3/envs/rdock/share/rxdock-2013.1.1_148c5bd1-0/data/scripts/dock.prm

>  <Rbt.Receptor>
def.prm

>  <SCORE>
-20.699

>  <SCORE.INTER>
-14.058

>  <SCORE.INTER.CONST>
1

>  <SCORE.INTER.POLAR>
-1.01367

>  <SCORE.INTER.REPUL>
0.0227761

>  <SCORE.INTER.ROT>
1

>  <SCORE.INTER.VDW>
-17.1254

>  <SCORE.INTER.norm>
-0.611217

>  <SCORE.INTRA>
-6.03243

>  <SCORE.INTRA.DIHEDRAL>
-15.4403

>  <SCORE.INTRA.DIHEDRAL.0>
21.7491

>  <SCORE.INTRA.POLAR>
0

>  <SCORE.INTRA.POLAR.0>
0

>  <SCORE.INTRA.REPUL>
0

>  <SCORE.INTRA.REPUL.0>
0

>  <SCORE.INTRA.VDW>
1.6877

>  <SCORE.INTRA.VDW.0>
-1.39731

>  <SCORE.INTRA.norm>
-0.26228

>  <SCORE.RESTR>
0

>  <SCORE.RESTR.CAVITY>
0

>  <SCORE.RESTR.norm>
0

>  <SCORE.SYSTEM>
-0.608616

>  <SCORE.SYSTEM.CONST>
0

>  <SCORE.SYSTEM.DIHEDRAL>
0.734524

>  <SCORE.SYSTEM.VDW>
-0.975878

>  <SCORE.SYSTEM.norm>
-0.0264616

>  <SCORE.heavy>
23

>  <SCORE.norm>
-0.899958

>  <TITLE>
    5281672_D                                                             

$$$$
Myricetin.pdb
  RxDock  02242109563D
librxdock.so/0.1.0
 29 31  0  0  0  0  0  0  0  0999 V2000
  -48.5669   -2.4821   16.4503 O   0  0  0  0  0  0
  -47.6387    0.1160   13.9788 O   0  0  0  0  0  0
  -52.2789   -2.1808   13.3748 O   0  0  0  0  0  0
  -50.0247   -0.7150   13.1276 O   0  0  0  0  0  0
  -52.4408   -5.0800   17.0971 O   0  0  0  0  0  0
  -45.1712    1.8239   18.0856 O   0  0  0  0  0  0
  -43.2521   -2.3753   16.9471 O   0  0  0  0  0  0
  -43.0184    0.1154   18.0777 O   0  0  0  0  0  0
  -50.3927   -2.2637   14.8715 C   0  0  0  0  0  0
  -47.9000   -1.4695   15.7998 C   0  0  0  0  0  0
  -49.8067   -2.8182   16.0127 C   0  0  0  0  0  0
  -46.6132   -1.0717   16.4078 C   0  0  0  0  0  0
  -48.3607   -0.8589   14.6618 C   0  0  0  0  0  0
  -49.6278   -1.2602   14.1569 C   0  0  0  0  0  0
  -51.6780   -2.6838   14.4830 C   0  0  0  0  0  0
  -50.5068   -3.7603   16.7441 C   0  0  0  0  0  0
  -45.5218   -1.9280   16.4093 C   0  0  0  0  0  0
  -46.4815    0.1913   16.9665 C   0  0  0  0  0  0
  -51.7682   -4.1580   16.3643 C   0  0  0  0  0  0
  -52.3498   -3.6161   15.2285 C   0  0  0  0  0  0
  -45.2876    0.5863   17.5282 C   0  0  0  0  0  0
  -44.3232   -1.5315   16.9593 C   0  0  0  0  0  0
  -44.2034   -0.2739   17.5252 C   0  0  0  0  0  0
  -48.0473    0.3233   13.0841 H   0  0  0  0  0  0
  -53.1892   -2.5756   13.2267 H   0  0  0  0  0  0
  -51.8642   -5.4610   17.8278 H   0  0  0  0  0  0
  -44.6631    1.7906   18.9531 H   0  0  0  0  0  0
  -43.5254   -3.3136   16.7116 H   0  0  0  0  0  0
  -42.9607    1.1160   18.1563 H   0  0  0  0  0  0
  1 10  1  0  0  0
  1 11  1  0  0  0
  2 13  1  0  0  0
  2 24  1  0  0  0
  3 15  1  0  0  0
  3 25  1  0  0  0
  4 14  2  0  0  0
  5 19  1  0  0  0
  5 26  1  0  0  0
  6 21  1  0  0  0
  6 27  1  0  0  0
  7 22  1  0  0  0
  7 28  1  0  0  0
  8 23  1  0  0  0
  8 29  1  0  0  0
  9 11  2  0  0  0
  9 14  1  0  0  0
  9 15  1  0  0  0
 10 12  1  0  0  0
 10 13  2  0  0  0
 11 16  1  0  0  0
 12 17  2  0  0  0
 12 18  1  0  0  0
 13 14  1  0  0  0
 15 20  2  0  0  0
 16 19  2  0  0  0
 17 22  1  0  0  0
 18 21  2  0  0  0
 19 20  1  0  0  0
 21 23  1  0  0  0
 22 23  2  0  0  0
M  END
>  <CHROM.0>
-179.96007747,-60.51648326,56.88072704

>  <CHROM.1>
169.28593536,179.94375952,-6.27833845,137.81056169,-13.46535480,-19.78187600
67.61057529,-48.09828561,-1.61229951,15.97166946,-3.06063052,-0.46253062
-0.73620756

>  <HEADER>
                                                                          

>  <MASTER>
        0    0    0    0    0    0    0    0   33    0   33    0          

>  <Name>
Myricetin.pdb

>  <RI>
-2.91798e+08

>  <Rbt.Current_Directory>
/root/miniconda3/envs/rdock/share/rxdock-2013.1.1_148c5bd1-0/data/ligands/prepped_ligands/Myricetin

>  <Rbt.Executable>
rbdock/0.1.0

>  <Rbt.Library>
librxdock.so/0.1.0

>  <Rbt.Parameter_File>
/root/miniconda3/envs/rdock/share/rxdock-2013.1.1_148c5bd1-0/data/scripts/dock.prm

>  <Rbt.Receptor>
def.prm

>  <SCORE>
-25.0538

>  <SCORE.INTER>
-18.3375

>  <SCORE.INTER.CONST>
1

>  <SCORE.INTER.POLAR>
-2.85853

>  <SCORE.INTER.REPUL>
0.054999

>  <SCORE.INTER.ROT>
1

>  <SCORE.INTER.VDW>
-15.2935

>  <SCORE.INTER.norm>
-0.797283

>  <SCORE.INTRA>
-5.84865

>  <SCORE.INTRA.DIHEDRAL>
-14.4765

>  <SCORE.INTRA.DIHEDRAL.0>
21.7491

>  <SCORE.INTRA.POLAR>
0

>  <SCORE.INTRA.POLAR.0>
0

>  <SCORE.INTRA.REPUL>
0

>  <SCORE.INTRA.REPUL.0>
0

>  <SCORE.INTRA.VDW>
1.38963

>  <SCORE.INTRA.VDW.0>
-1.39731

>  <SCORE.INTRA.norm>
-0.254289

>  <SCORE.RESTR>
0.178877

>  <SCORE.RESTR.CAVITY>
0.178877

>  <SCORE.RESTR.norm>
0.00777725

>  <SCORE.SYSTEM>
-1.04656

>  <SCORE.SYSTEM.CONST>
0

>  <SCORE.SYSTEM.DIHEDRAL>
0.0279772

>  <SCORE.SYSTEM.VDW>
-1.06055

>  <SCORE.SYSTEM.norm>
-0.0455026

>  <SCORE.heavy>
23

>  <SCORE.norm>
-1.0893

>  <TITLE>
    5281672_D                                                             

$$$$
Myricetin.pdb
  RxDock  02242109563D
librxdock.so/0.1.0
 29 31  0  0  0  0  0  0  0  0999 V2000
  -51.5068   -3.8478   15.1832 O   0  0  0  0  0  0
  -53.3703   -3.7040   18.3810 O   0  0  0  0  0  0
  -50.3296    0.3686   17.2239 O   0  0  0  0  0  0
  -51.9779   -1.4304   18.3804 O   0  0  0  0  0  0
  -48.6650   -0.8160   12.9679 O   0  0  0  0  0  0
  -52.9684   -8.8304   17.3095 O   0  0  0  0  0  0
  -55.9583   -6.7809   14.2319 O   0  0  0  0  0  0
  -55.1407   -8.9950   15.6339 O   0  0  0  0  0  0
  -50.9745   -1.7461   16.2665 C   0  0  0  0  0  0
  -52.3709   -4.1447   16.2119 C   0  0  0  0  0  0
  -50.8751   -2.6469   15.2026 C   0  0  0  0  0  0
  -53.1182   -5.4106   16.0602 C   0  0  0  0  0  0
  -52.5431   -3.3525   17.3178 C   0  0  0  0  0  0
  -51.8259   -2.1264   17.3770 C   0  0  0  0  0  0
  -50.2711   -0.5291   16.2076 C   0  0  0  0  0  0
  -50.0964   -2.3188   14.1077 C   0  0  0  0  0  0
  -54.2163   -5.5023   15.2176 C   0  0  0  0  0  0
  -52.7017   -6.5385   16.7523 C   0  0  0  0  0  0
  -49.4202   -1.1217   14.0523 C   0  0  0  0  0  0
  -49.5101   -0.2288   15.1090 C   0  0  0  0  0  0
  -53.3771   -7.7311   16.6164 C   0  0  0  0  0  0
  -54.8863   -6.6964   15.0703 C   0  0  0  0  0  0
  -54.4715   -7.8144   15.7734 C   0  0  0  0  0  0
  -54.0613   -2.9973   18.5645 H   0  0  0  0  0  0
  -49.4172    0.6404   17.5406 H   0  0  0  0  0  0
  -48.8045   -1.4783   12.2240 H   0  0  0  0  0  0
  -52.1807   -8.6218   17.8995 H   0  0  0  0  0  0
  -56.4352   -7.6603   14.3316 H   0  0  0  0  0  0
  -55.3157   -9.2061   14.6667 H   0  0  0  0  0  0
  1 10  1  0  0  0
  1 11  1  0  0  0
  2 13  1  0  0  0
  2 24  1  0  0  0
  3 15  1  0  0  0
  3 25  1  0  0  0
  4 14  2  0  0  0
  5 19  1  0  0  0
  5 26  1  0  0  0
  6 21  1  0  0  0
  6 27  1  0  0  0
  7 22  1  0  0  0
  7 28  1  0  0  0
  8 23  1  0  0  0
  8 29  1  0  0  0
  9 11  2  0  0  0
  9 14  1  0  0  0
  9 15  1  0  0  0
 10 12  1  0  0  0
 10 13  2  0  0  0
 11 16  1  0  0  0
 12 17  2  0  0  0
 12 18  1  0  0  0
 13 14  1  0  0  0
 15 20  2  0  0  0
 16 19  2  0  0  0
 17 22  1  0  0  0
 18 21  2  0  0  0
 19 20  1  0  0  0
 21 23  1  0  0  0
 22 23  2  0  0  0
M  END
>  <CHROM.0>
-62.48233459,61.82585618,178.32355435

>  <CHROM.1>
-124.20944760,127.35206000,9.12353353,1.61823665,-170.97323833,-133.37798799
-77.77120902,-52.23046399,-4.03580262,15.95429481,-0.38621199,-0.95042567
-2.09142472

>  <HEADER>
                                                                          

>  <MASTER>
        0    0    0    0    0    0    0    0   33    0   33    0          

>  <Name>
Myricetin.pdb

>  <RI>
-2.91798e+08

>  <Rbt.Current_Directory>
/root/miniconda3/envs/rdock/share/rxdock-2013.1.1_148c5bd1-0/data/ligands/prepped_ligands/Myricetin

>  <Rbt.Executable>
rbdock/0.1.0

>  <Rbt.Library>
librxdock.so/0.1.0

>  <Rbt.Parameter_File>
/root/miniconda3/envs/rdock/share/rxdock-2013.1.1_148c5bd1-0/data/scripts/dock.prm

>  <Rbt.Receptor>
def.prm

>  <SCORE>
-23.4312

>  <SCORE.INTER>
-19.3406

>  <SCORE.INTER.CONST>
1

>  <SCORE.INTER.POLAR>
-1.91758

>  <SCORE.INTER.REPUL>
0

>  <SCORE.INTER.ROT>
1

>  <SCORE.INTER.VDW>
-19.2208

>  <SCORE.INTER.norm>
-0.840894

>  <SCORE.INTRA>
-3.06721

>  <SCORE.INTRA.DIHEDRAL>
-8.02432

>  <SCORE.INTRA.DIHEDRAL.0>
21.7491

>  <SCORE.INTRA.POLAR>
0

>  <SCORE.INTRA.POLAR.0>
0

>  <SCORE.INTRA.REPUL>
0

>  <SCORE.INTRA.REPUL.0>
0

>  <SCORE.INTRA.VDW>
0.944952

>  <SCORE.INTRA.VDW.0>
-1.39731

>  <SCORE.INTRA.norm>
-0.133357

>  <SCORE.RESTR>
0

>  <SCORE.RESTR.CAVITY>
0

>  <SCORE.RESTR.norm>
0

>  <SCORE.SYSTEM>
-1.0234

>  <SCORE.SYSTEM.CONST>
0

>  <SCORE.SYSTEM.DIHEDRAL>
0.0419467

>  <SCORE.SYSTEM.VDW>
-1.04438

>  <SCORE.SYSTEM.norm>
-0.0444959

>  <SCORE.heavy>
23

>  <SCORE.norm>
-1.01875

>  <TITLE>
    5281672_D                                                             

$$$$
Myricetin.pdb
  RxDock  02242109563D
librxdock.so/0.1.0
 29 31  0  0  0  0  0  0  0  0999 V2000
  -49.1970   -4.7334   15.8698 O   0  0  0  0  0  0
  -52.0146   -2.3296   15.9205 O   0  0  0  0  0  0
  -52.7550   -6.9009   18.3134 O   0  0  0  0  0  0
  -52.9931   -4.4480   17.2100 O   0  0  0  0  0  0
  -48.5562   -8.9912   17.7765 O   0  0  0  0  0  0
  -50.1282    0.3256   12.8635 O   0  0  0  0  0  0
  -45.9178   -1.1289   14.5276 O   0  0  0  0  0  0
  -47.4033    0.6372   13.0409 O   0  0  0  0  0  0
  -51.0260   -5.7488   17.0936 C   0  0  0  0  0  0
  -49.9501   -3.5922   15.7162 C   0  0  0  0  0  0
  -49.7215   -5.7555   16.5922 C   0  0  0  0  0  0
  -49.2676   -2.4760   15.0291 C   0  0  0  0  0  0
  -51.2459   -3.4681   16.1468 C   0  0  0  0  0  0
  -51.8253   -4.5656   16.8404 C   0  0  0  0  0  0
  -51.4914   -6.8604   17.8195 C   0  0  0  0  0  0
  -48.9101   -6.8500   16.8297 C   0  0  0  0  0  0
  -47.8929   -2.3104   15.1141 C   0  0  0  0  0  0
  -50.0086   -1.5887   14.2622 C   0  0  0  0  0  0
  -49.3686   -7.9289   17.5502 C   0  0  0  0  0  0
  -50.6645   -7.9294   18.0427 C   0  0  0  0  0  0
  -49.3909   -0.5482   13.6044 C   0  0  0  0  0  0
  -47.2708   -1.2783   14.4477 C   0  0  0  0  0  0
  -48.0189   -0.3903   13.6939 C   0  0  0  0  0  0
  -52.9201   -2.4002   16.3512 H   0  0  0  0  0  0
  -53.2332   -6.0264   18.1993 H   0  0  0  0  0  0
  -47.8422   -9.0649   17.0720 H   0  0  0  0  0  0
  -51.0054   -0.0790   12.5826 H   0  0  0  0  0  0
  -45.5137   -1.7784   15.1799 H   0  0  0  0  0  0
  -46.5102    0.3570   12.6743 H   0  0  0  0  0  0
  1 10  1  0  0  0
  1 11  1  0  0  0
  2 13  1  0  0  0
  2 24  1  0  0  0
  3 15  1  0  0  0
  3 25  1  0  0  0
  4 14  2  0  0  0
  5 19  1  0  0  0
  5 26  1  0  0  0
  6 21  1  0  0  0
  6 27  1  0  0  0
  7 22  1  0  0  0
  7 28  1  0  0  0
  8 23  1  0  0  0
  8 29  1  0  0  0
  9 11  2  0  0  0
  9 14  1  0  0  0
  9 15  1  0  0  0
 10 12  1  0  0  0
 10 13  2  0  0  0
 11 16  1  0  0  0
 12 17  2  0  0  0
 12 18  1  0  0  0
 13 14  1  0  0  0
 15 20  2  0  0  0
 16 19  2  0  0  0
 17 22  1  0  0  0
 18 21  2  0  0  0
 19 20  1  0  0  0
 21 23  1  0  0  0
 22 23  2  0  0  0
M  END
>  <CHROM.0>
-61.60346600,-179.74787585,173.36675814

>  <CHROM.1>
-176.89947614,-7.37403501,-25.01977094,-22.29512689,-5.99930791,-142.88015099
-29.76327639,-49.78160665,-3.81857423,15.81779102,-1.88570003,0.18644960
-0.46939735

>  <HEADER>
                                                                          

>  <MASTER>
        0    0    0    0    0    0    0    0   33    0   33    0          

>  <Name>
Myricetin.pdb

>  <RI>
-2.91798e+08

>  <Rbt.Current_Directory>
/root/miniconda3/envs/rdock/share/rxdock-2013.1.1_148c5bd1-0/data/ligands/prepped_ligands/Myricetin

>  <Rbt.Executable>
rbdock/0.1.0

>  <Rbt.Library>
librxdock.so/0.1.0

>  <Rbt.Parameter_File>
/root/miniconda3/envs/rdock/share/rxdock-2013.1.1_148c5bd1-0/data/scripts/dock.prm

>  <Rbt.Receptor>
def.prm

>  <SCORE>
-26.9605

>  <SCORE.INTER>
-19.6519

>  <SCORE.INTER.CONST>
1

>  <SCORE.INTER.POLAR>
-2.91358

>  <SCORE.INTER.REPUL>
0.0548819

>  <SCORE.INTER.ROT>
1

>  <SCORE.INTER.VDW>
-16.4202

>  <SCORE.INTER.norm>
-0.854432

>  <SCORE.INTRA>
-6.26384

>  <SCORE.INTRA.DIHEDRAL>
-17.0853

>  <SCORE.INTRA.DIHEDRAL.0>
21.7491

>  <SCORE.INTRA.POLAR>
0

>  <SCORE.INTRA.POLAR.0>
0

>  <SCORE.INTRA.REPUL>
0

>  <SCORE.INTRA.REPUL.0>
0

>  <SCORE.INTRA.VDW>
2.27882

>  <SCORE.INTRA.VDW.0>
-1.39731

>  <SCORE.INTRA.norm>
-0.272341

>  <SCORE.RESTR>
0

>  <SCORE.RESTR.CAVITY>
0

>  <SCORE.RESTR.norm>
0

>  <SCORE.SYSTEM>
-1.04471

>  <SCORE.SYSTEM.CONST>
0

>  <SCORE.SYSTEM.DIHEDRAL>
0.120812

>  <SCORE.SYSTEM.VDW>
-1.10511

>  <SCORE.SYSTEM.norm>
-0.045422

>  <SCORE.heavy>
23

>  <SCORE.norm>
-1.1722

>  <TITLE>
    5281672_D                                                             

$$$$
Myricetin.pdb
  RxDock  02242109563D
librxdock.so/0.1.0
 29 31  0  0  0  0  0  0  0  0999 V2000
  -48.3439   -3.3943   15.9542 O   0  0  0  0  0  0
  -51.6321   -3.2530   14.2549 O   0  0  0  0  0  0
  -48.1829    0.4674   13.0578 O   0  0  0  0  0  0
  -50.3608   -1.1088   13.3092 O   0  0  0  0  0  0
  -44.4214   -0.8119   15.6078 O   0  0  0  0  0  0
  -53.4445   -6.3146   16.9458 O   0  0  0  0  0  0
  -49.0925   -8.1751   17.4052 O   0  0  0  0  0  0
  -51.8124   -8.3898   17.7096 O   0  0  0  0  0  0
  -48.3373   -1.4799   14.4680 C   0  0  0  0  0  0
  -49.6092   -3.7130   15.5175 C   0  0  0  0  0  0
  -47.7196   -2.3300   15.3894 C   0  0  0  0  0  0
  -50.1754   -4.9554   16.0830 C   0  0  0  0  0  0
  -50.3263   -2.9509   14.6316 C   0  0  0  0  0  0
  -49.7027   -1.7924   14.0926 C   0  0  0  0  0  0
  -47.6175   -0.3901   13.9451 C   0  0  0  0  0  0
  -46.4090   -2.0898   15.7598 C   0  0  0  0  0  0
  -49.3592   -6.0082   16.4701 C   0  0  0  0  0  0
  -51.5475   -5.0657   16.2556 C   0  0  0  0  0  0
  -45.7076   -1.0284   15.2355 C   0  0  0  0  0  0
  -46.3193   -0.1783   14.3272 C   0  0  0  0  0  0
  -52.0950   -6.2103   16.7914 C   0  0  0  0  0  0
  -49.9026   -7.1491   17.0173 C   0  0  0  0  0  0
  -51.2737   -7.2559   17.1755 C   0  0  0  0  0  0
  -52.0456   -2.5108   13.7176 H   0  0  0  0  0  0
  -48.7381   -0.0103   12.3722 H   0  0  0  0  0  0
  -44.1218   -1.4773   16.2999 H   0  0  0  0  0  0
  -53.9060   -5.4424   16.7499 H   0  0  0  0  0  0
  -48.1604   -8.0643   17.0453 H   0  0  0  0  0  0
  -52.8169   -8.3700   17.6769 H   0  0  0  0  0  0
  1 10  1  0  0  0
  1 11  1  0  0  0
  2 13  1  0  0  0
  2 24  1  0  0  0
  3 15  1  0  0  0
  3 25  1  0  0  0
  4 14  2  0  0  0
  5 19  1  0  0  0
  5 26  1  0  0  0
  6 21  1  0  0  0
  6 27  1  0  0  0
  7 22  1  0  0  0
  7 28  1  0  0  0
  8 23  1  0  0  0
  8 29  1  0  0  0
  9 11  2  0  0  0
  9 14  1  0  0  0
  9 15  1  0  0  0
 10 12  1  0  0  0
 10 13  2  0  0  0
 11 16  1  0  0  0
 12 17  2  0  0  0
 12 18  1  0  0  0
 13 14  1  0  0  0
 15 20  2  0  0  0
 16 19  2  0  0  0
 17 22  1  0  0  0
 18 21  2  0  0  0
 19 20  1  0  0  0
 21 23  1  0  0  0
 22 23  2  0  0  0
M  END
>  <CHROM.0>
-65.55980418,-60.98136462,177.58867621

>  <CHROM.1>
170.90082067,-41.44799384,-2.45746872,-7.92823557,-13.31991405,5.99519792
-29.21980700,-49.31840829,-3.66686408,15.54249112,-0.98660743,0.23246804
2.59991536

>  <HEADER>
                                                                          

>  <MASTER>
        0    0    0    0    0    0    0    0   33    0   33    0          

>  <Name>
Myricetin.pdb

>  <RI>
-2.91798e+08

>  <Rbt.Current_Directory>
/root/miniconda3/envs/rdock/share/rxdock-2013.1.1_148c5bd1-0/data/ligands/prepped_ligands/Myricetin

>  <Rbt.Executable>
rbdock/0.1.0

>  <Rbt.Library>
librxdock.so/0.1.0

>  <Rbt.Parameter_File>
/root/miniconda3/envs/rdock/share/rxdock-2013.1.1_148c5bd1-0/data/scripts/dock.prm

>  <Rbt.Receptor>
def.prm

>  <SCORE>
-23.6316

>  <SCORE.INTER>
-15.5866

>  <SCORE.INTER.CONST>
1

>  <SCORE.INTER.POLAR>
-1.50086

>  <SCORE.INTER.REPUL>
0.0273299

>  <SCORE.INTER.ROT>
1

>  <SCORE.INTER.VDW>
-17.0203

>  <SCORE.INTER.norm>
-0.677676

>  <SCORE.INTRA>
-7.01753

>  <SCORE.INTRA.DIHEDRAL>
-17.9528

>  <SCORE.INTRA.DIHEDRAL.0>
21.7491

>  <SCORE.INTRA.POLAR>
-0.101579

>  <SCORE.INTRA.POLAR.0>
0

>  <SCORE.INTRA.REPUL>
0

>  <SCORE.INTRA.REPUL.0>
0

>  <SCORE.INTRA.VDW>
2.30423

>  <SCORE.INTRA.VDW.0>
-1.39731

>  <SCORE.INTRA.norm>
-0.30511

>  <SCORE.RESTR>
0.0111866

>  <SCORE.RESTR.CAVITY>
0.0111866

>  <SCORE.RESTR.norm>
0.000486374

>  <SCORE.SYSTEM>
-1.03874

>  <SCORE.SYSTEM.CONST>
0

>  <SCORE.SYSTEM.DIHEDRAL>
0.101022

>  <SCORE.SYSTEM.VDW>
-1.08925

>  <SCORE.SYSTEM.norm>
-0.0451626

>  <SCORE.heavy>
23

>  <SCORE.norm>
-1.02746

>  <TITLE>
    5281672_D                                                             

$$$$
Myricetin.pdb
  RxDock  02242109573D
librxdock.so/0.1.0
 29 31  0  0  0  0  0  0  0  0999 V2000
  -47.1657   -4.6825   17.3705 O   0  0  0  0  0  0
  -49.0656   -1.8410   15.9437 O   0  0  0  0  0  0
  -51.5468   -6.4113   16.3004 O   0  0  0  0  0  0
  -50.7956   -3.8650   15.8074 O   0  0  0  0  0  0
  -48.3010   -9.1410   18.3742 O   0  0  0  0  0  0
  -46.2663    1.0851   18.2455 O   0  0  0  0  0  0
  -42.9110   -1.8862   16.6561 O   0  0  0  0  0  0
  -43.6392    0.5811   17.6144 O   0  0  0  0  0  0
  -49.3891   -5.4714   16.8157 C   0  0  0  0  0  0
  -47.5259   -3.4189   16.9624 C   0  0  0  0  0  0
  -48.1076   -5.6590   17.3406 C   0  0  0  0  0  0
  -46.4896   -2.3806   17.1418 C   0  0  0  0  0  0
  -48.7446   -3.1112   16.4146 C   0  0  0  0  0  0
  -49.7105   -4.1496   16.3132 C   0  0  0  0  0  0
  -50.2968   -6.5462   16.8118 C   0  0  0  0  0  0
  -47.7611   -6.8945   17.8566 C   0  0  0  0  0  0
  -45.1612   -2.6267   16.8270 C   0  0  0  0  0  0
  -46.8517   -1.1259   17.6099 C   0  0  0  0  0  0
  -48.6581   -7.9380   17.8596 C   0  0  0  0  0  0
  -49.9277   -7.7581   17.3327 C   0  0  0  0  0  0
  -45.9035   -0.1404   17.7736 C   0  0  0  0  0  0
  -44.2129   -1.6396   16.9781 C   0  0  0  0  0  0
  -44.5804   -0.3938   17.4567 C   0  0  0  0  0  0
  -48.2534   -1.3517   15.6097 H   0  0  0  0  0  0
  -51.8836   -7.2654   15.8960 H   0  0  0  0  0  0
  -47.3175   -9.1751   18.5818 H   0  0  0  0  0  0
  -45.9022    1.8243   17.6684 H   0  0  0  0  0  0
  -42.7898   -2.8193   16.3021 H   0  0  0  0  0  0
  -44.0196    1.3873   18.0792 H   0  0  0  0  0  0
  1 10  1  0  0  0
  1 11  1  0  0  0
  2 13  1  0  0  0
  2 24  1  0  0  0
  3 15  1  0  0  0
  3 25  1  0  0  0
  4 14  2  0  0  0
  5 19  1  0  0  0
  5 26  1  0  0  0
  6 21  1  0  0  0
  6 27  1  0  0  0
  7 22  1  0  0  0
  7 28  1  0  0  0
  8 23  1  0  0  0
  8 29  1  0  0  0
  9 11  2  0  0  0
  9 14  1  0  0  0
  9 15  1  0  0  0
 10 12  1  0  0  0
 10 13  2  0  0  0
 11 16  1  0  0  0
 12 17  2  0  0  0
 12 18  1  0  0  0
 13 14  1  0  0  0
 15 20  2  0  0  0
 16 19  2  0  0  0
 17 22  1  0  0  0
 18 21  2  0  0  0
 19 20  1  0  0  0
 21 23  1  0  0  0
 22 23  2  0  0  0
M  END
>  <CHROM.0>
172.83091959,-59.69887832,-59.89197909

>  <CHROM.1>
29.53443338,148.17457384,-9.09778371,-130.53009601,1.33040910,7.49831877
42.80783713,-47.49918705,-3.66498248,17.11541232,-2.22838176,-0.23237756
-0.13938198

>  <HEADER>
                                                                          

>  <MASTER>
        0    0    0    0    0    0    0    0   33    0   33    0          

>  <Name>
Myricetin.pdb

>  <RI>
-2.91798e+08

>  <Rbt.Current_Directory>
/root/miniconda3/envs/rdock/share/rxdock-2013.1.1_148c5bd1-0/data/ligands/prepped_ligands/Myricetin

>  <Rbt.Executable>
rbdock/0.1.0

>  <Rbt.Library>
librxdock.so/0.1.0

>  <Rbt.Parameter_File>
/root/miniconda3/envs/rdock/share/rxdock-2013.1.1_148c5bd1-0/data/scripts/dock.prm

>  <Rbt.Receptor>
def.prm

>  <SCORE>
-21.8486

>  <SCORE.INTER>
-15.8492

>  <SCORE.INTER.CONST>
1

>  <SCORE.INTER.POLAR>
-1.72031

>  <SCORE.INTER.REPUL>
0

>  <SCORE.INTER.ROT>
1

>  <SCORE.INTER.VDW>
-16.4001

>  <SCORE.INTER.norm>
-0.689095

>  <SCORE.INTRA>
-5.04155

>  <SCORE.INTRA.DIHEDRAL>
-14.0531

>  <SCORE.INTRA.DIHEDRAL.0>
21.7491

>  <SCORE.INTRA.POLAR>
0

>  <SCORE.INTRA.POLAR.0>
0

>  <SCORE.INTRA.REPUL>
0

>  <SCORE.INTRA.REPUL.0>
0

>  <SCORE.INTRA.VDW>
1.985

>  <SCORE.INTRA.VDW.0>
-1.39731

>  <SCORE.INTRA.norm>
-0.219198

>  <SCORE.RESTR>
0

>  <SCORE.RESTR.CAVITY>
0

>  <SCORE.RESTR.norm>
0

>  <SCORE.SYSTEM>
-0.957902

>  <SCORE.SYSTEM.CONST>
0

>  <SCORE.SYSTEM.DIHEDRAL>
0.13109

>  <SCORE.SYSTEM.POLAR>
-0.00105284

>  <SCORE.SYSTEM.VDW>
-1.01987

>  <SCORE.SYSTEM.norm>
-0.0416479

>  <SCORE.heavy>
23

>  <SCORE.norm>
-0.949941

>  <TITLE>
    5281672_D                                                             

$$$$
