Theaflavin_digallate
  PyMOL2.4          3D                             0

 95102  0  0  0  0  0  0  0  0999 V2000
    4.7048   -8.5838   -4.2446 C   0  0  0  0  0  0  0  0  0  0  0  0
    5.8118   -7.3754   -3.7204 C   0  0  0  0  0  0  0  0  0  0  0  0
    6.2360   -8.0998   -0.9215 C   0  0  0  0  0  0  0  0  0  0  0  0
    6.2569   -6.4054   -4.6175 C   0  0  0  0  0  0  0  0  0  0  0  0
    6.5658   -7.3011   -2.0893 C   0  0  0  0  0  0  0  0  0  0  0  0
    6.5261   -4.2875   -3.6835 O   0  0  0  0  0  0  0  0  0  0  0  0
    7.2783   -5.3062   -4.3523 C   0  0  0  0  0  0  0  0  0  0  0  0
    4.0658   -7.4431    0.6379 O   0  0  0  0  0  0  0  0  0  0  0  0
    7.1933   -3.2544   -3.0989 C   0  0  0  0  0  0  0  0  0  0  0  0
    2.8096   -6.9706    0.4273 C   0  0  0  0  0  0  0  0  0  0  0  0
    4.0124  -10.0081   -3.1933 C   0  0  0  0  0  0  0  0  0  0  0  0
    8.5180   -3.3164   -2.6745 C   0  0  0  0  0  0  0  0  0  0  0  0
    2.2278   -7.0400   -0.8281 C   0  0  0  0  0  0  0  0  0  0  0  0
    5.0216   -7.4041   -0.4489 C   0  0  0  0  0  0  0  0  0  0  0  0
    4.6992  -10.5096   -1.4935 C   0  0  0  0  0  0  0  0  0  0  0  0
    5.6922   -9.8011   -0.6709 C   0  0  0  0  0  0  0  0  0  0  0  0
    8.7450   -5.5656   -3.7958 C   0  0  0  0  0  0  0  0  0  0  0  0
    4.3813   -8.2845   -1.6035 C   0  0  0  0  0  0  0  0  0  0  0  0
    4.2196   -8.5300   -5.5201 C   0  0  0  0  0  0  0  0  0  0  0  0
    9.9834   -7.2943   -2.6189 C   0  0  0  0  0  0  0  0  0  0  0  0
    6.5719  -10.1940   -3.2591 C   0  0  0  0  0  0  0  0  0  0  0  0
    9.2144   -4.6278   -2.6770 C   0  0  0  0  0  0  0  0  0  0  0  0
    3.1550   -7.1855   -1.9955 C   0  0  0  0  0  0  0  0  0  0  0  0
    5.6065   -6.4504   -5.8757 C   0  0  0  0  0  0  0  0  0  0  0  0
   11.3574   -6.9310   -3.0253 C   0  0  0  0  0  0  0  0  0  0  0  0
    7.8550   -9.8772   -3.9153 C   0  0  0  0  0  0  0  0  0  0  0  0
   13.8897   -5.9740   -3.7289 C   0  0  0  0  0  0  0  0  0  0  0  0
   10.2727   -9.7694   -5.3145 C   0  0  0  0  0  0  0  0  0  0  0  0
    9.0340   -6.9582   -3.5317 O   0  0  0  0  0  0  0  0  0  0  0  0
    5.8411   -9.1297   -2.6283 O   0  0  0  0  0  0  0  0  0  0  0  0
    9.1063   -2.1884   -2.0837 C   0  0  0  0  0  0  0  0  0  0  0  0
    0.8358   -6.8904   -0.9269 C   0  0  0  0  0  0  0  0  0  0  0  0
    4.6645   -7.4586   -6.3012 C   0  0  0  0  0  0  0  0  0  0  0  0
   13.5773   -6.2131   -2.3948 C   0  0  0  0  0  0  0  0  0  0  0  0
    9.1387   -9.1781   -5.8447 C   0  0  0  0  0  0  0  0  0  0  0  0
   12.9406   -6.2278   -4.7110 C   0  0  0  0  0  0  0  0  0  0  0  0
   10.1954  -10.4195   -4.0886 C   0  0  0  0  0  0  0  0  0  0  0  0
    6.4330   -2.1181   -2.8347 C   0  0  0  0  0  0  0  0  0  0  0  0
    2.0718   -6.5480    1.5233 C   0  0  0  0  0  0  0  0  0  0  0  0
   11.6828   -6.7168   -4.3671 C   0  0  0  0  0  0  0  0  0  0  0  0
   12.3113   -6.6812   -2.0310 C   0  0  0  0  0  0  0  0  0  0  0  0
    7.9184   -9.2793   -5.1822 C   0  0  0  0  0  0  0  0  0  0  0  0
    8.9974  -10.4706   -3.3764 C   0  0  0  0  0  0  0  0  0  0  0  0
    0.0675   -6.4913    0.1580 C   0  0  0  0  0  0  0  0  0  0  0  0
    8.3717   -1.0279   -1.8727 C   0  0  0  0  0  0  0  0  0  0  0  0
    0.7145   -6.2640    1.3706 C   0  0  0  0  0  0  0  0  0  0  0  0
    7.0241   -1.0205   -2.2203 C   0  0  0  0  0  0  0  0  0  0  0  0
    3.1119  -10.7331   -3.6247 O   0  0  0  0  0  0  0  0  0  0  0  0
    6.2065  -11.3553   -3.4368 O   0  0  0  0  0  0  0  0  0  0  0  0
    9.7515   -7.8874   -1.5725 O   0  0  0  0  0  0  0  0  0  0  0  0
    4.3390  -11.8145   -1.1489 O   0  0  0  0  0  0  0  0  0  0  0  0
    3.3720   -9.4589   -6.0406 O   0  0  0  0  0  0  0  0  0  0  0  0
   15.1081   -5.4557   -4.0551 O   0  0  0  0  0  0  0  0  0  0  0  0
   11.4484   -9.7364   -6.0041 O   0  0  0  0  0  0  0  0  0  0  0  0
    0.1952   -7.1957   -2.0954 O   0  0  0  0  0  0  0  0  0  0  0  0
   10.4211   -2.1859   -1.7146 O   0  0  0  0  0  0  0  0  0  0  0  0
    4.2233   -7.3761   -7.6129 O   0  0  0  0  0  0  0  0  0  0  0  0
   13.2163   -5.9443   -6.0189 O   0  0  0  0  0  0  0  0  0  0  0  0
   14.4898   -5.9417   -1.4134 O   0  0  0  0  0  0  0  0  0  0  0  0
    9.2018   -8.4488   -6.9951 O   0  0  0  0  0  0  0  0  0  0  0  0
   11.2952  -11.0328   -3.5742 O   0  0  0  0  0  0  0  0  0  0  0  0
    6.2462    0.0643   -1.9360 O   0  0  0  0  0  0  0  0  0  0  0  0
    0.0326   -5.7337    2.4271 O   0  0  0  0  0  0  0  0  0  0  0  0
    6.7173   -6.2464   -1.8983 H   0  0  0  0  0  0  0  0  0  0  0  0
    5.6927   -7.5860    0.4300 H   0  0  0  0  0  0  0  0  0  0  0  0
    6.1022  -10.2351    0.2342 H   0  0  0  0  0  0  0  0  0  0  0  0
    7.4930   -4.9233   -5.3536 H   0  0  0  0  0  0  0  0  0  0  0  0
    5.8328   -5.6705   -6.6023 H   0  0  0  0  0  0  0  0  0  0  0  0
    9.3812   -5.3142   -4.6523 H   0  0  0  0  0  0  0  0  0  0  0  0
    5.3844   -2.1014   -3.0996 H   0  0  0  0  0  0  0  0  0  0  0  0
    2.5448   -6.4382    2.4937 H   0  0  0  0  0  0  0  0  0  0  0  0
   10.2864   -4.4648   -2.8018 H   0  0  0  0  0  0  0  0  0  0  0  0
    9.0889   -5.0862   -1.6910 H   0  0  0  0  0  0  0  0  0  0  0  0
    2.5291   -7.5085   -2.8519 H   0  0  0  0  0  0  0  0  0  0  0  0
    3.5607   -6.1984   -2.2468 H   0  0  0  0  0  0  0  0  0  0  0  0
    4.1672   -8.1140   -2.5741 H   0  0  0  0  0  0  0  0  0  0  0  0
    3.5424  -12.0215   -1.6707 H   0  0  0  0  0  0  0  0  0  0  0  0
    3.8169  -10.3183   -5.9363 H   0  0  0  0  0  0  0  0  0  0  0  0
   10.9532   -6.8744   -5.1547 H   0  0  0  0  0  0  0  0  0  0  0  0
   12.0725   -6.8223   -0.9793 H   0  0  0  0  0  0  0  0  0  0  0  0
    7.0348   -8.9074   -5.6768 H   0  0  0  0  0  0  0  0  0  0  0  0
    8.9435  -11.0172   -2.4366 H   0  0  0  0  0  0  0  0  0  0  0  0
    8.8322   -0.1509   -1.4177 H   0  0  0  0  0  0  0  0  0  0  0  0
   10.5292   -2.8421   -1.0050 H   0  0  0  0  0  0  0  0  0  0  0  0
   -1.0073   -6.3479    0.0656 H   0  0  0  0  0  0  0  0  0  0  0  0
    0.1979   -8.1692   -2.1692 H   0  0  0  0  0  0  0  0  0  0  0  0
    4.7439   -8.0566   -8.0809 H   0  0  0  0  0  0  0  0  0  0  0  0
   15.2950   -5.7076   -4.9760 H   0  0  0  0  0  0  0  0  0  0  0  0
   14.6668   -6.7852   -0.9601 H   0  0  0  0  0  0  0  0  0  0  0  0
   11.7905   -8.8282   -5.9420 H   0  0  0  0  0  0  0  0  0  0  0  0
    9.0943   -9.0626   -7.7405 H   0  0  0  0  0  0  0  0  0  0  0  0
   12.8370   -6.6629   -6.5550 H   0  0  0  0  0  0  0  0  0  0  0  0
   11.4563  -10.6319   -2.7025 H   0  0  0  0  0  0  0  0  0  0  0  0
   -0.8354   -6.1738    2.4856 H   0  0  0  0  0  0  0  0  0  0  0  0
    6.7950    0.8611   -2.0370 H   0  0  0  0  0  0  0  0  0  0  0  0
  1  2  2  0  0  0  0
  1 11  1  0  0  0  0
  1 19  1  0  0  0  0
  2  4  1  0  0  0  0
  2  5  1  0  0  0  0
  3  5  2  0  0  0  0
  3 16  1  0  0  0  0
  4 24  2  0  0  0  0
  5 64  1  0  0  0  0
  6  7  1  0  0  0  0
  6  9  1  0  0  0  0
  4  7  1  0  0  0  0
  7 17  1  0  0  0  0
  7 67  1  0  0  0  0
  8 10  1  0  0  0  0
  8 14  1  0  0  0  0
  9 12  1  0  0  0  0
  9 38  2  0  0  0  0
 10 13  2  0  0  0  0
 10 39  1  0  0  0  0
 11 15  1  0  0  0  0
 11 48  2  0  0  0  0
 12 22  1  0  0  0  0
 12 31  2  0  0  0  0
 13 23  1  0  0  0  0
 13 32  1  0  0  0  0
  3 14  1  0  0  0  0
 14 18  1  0  0  0  0
 14 65  1  0  0  0  0
 15 16  2  0  0  0  0
 15 51  1  0  0  0  0
 16 66  1  0  0  0  0
 17 22  1  0  0  0  0
 17 29  1  0  0  0  0
 17 69  1  0  0  0  0
 18 23  1  0  0  0  0
 18 30  1  0  0  0  0
 18 76  1  0  0  0  0
 19 33  2  0  0  0  0
 19 52  1  0  0  0  0
 20 25  1  0  0  0  0
 20 29  1  0  0  0  0
 20 50  2  0  0  0  0
 21 26  1  0  0  0  0
 21 30  1  0  0  0  0
 21 49  2  0  0  0  0
 22 72  1  0  0  0  0
 22 73  1  0  0  0  0
 23 74  1  0  0  0  0
 23 75  1  0  0  0  0
 24 33  1  0  0  0  0
 24 68  1  0  0  0  0
 25 40  1  0  0  0  0
 25 41  2  0  0  0  0
 26 42  2  0  0  0  0
 26 43  1  0  0  0  0
 27 34  2  0  0  0  0
 27 36  1  0  0  0  0
 27 53  1  0  0  0  0
 28 35  2  0  0  0  0
 28 37  1  0  0  0  0
 28 54  1  0  0  0  0
 31 45  1  0  0  0  0
 31 56  1  0  0  0  0
 32 44  2  0  0  0  0
 32 55  1  0  0  0  0
 33 57  1  0  0  0  0
 34 41  1  0  0  0  0
 34 59  1  0  0  0  0
 35 42  1  0  0  0  0
 35 60  1  0  0  0  0
 36 40  2  0  0  0  0
 36 58  1  0  0  0  0
 37 43  2  0  0  0  0
 37 61  1  0  0  0  0
 38 47  1  0  0  0  0
 38 70  1  0  0  0  0
 39 46  2  0  0  0  0
 39 71  1  0  0  0  0
 40 79  1  0  0  0  0
 41 80  1  0  0  0  0
 42 81  1  0  0  0  0
 43 82  1  0  0  0  0
 44 46  1  0  0  0  0
 44 85  1  0  0  0  0
 45 47  2  0  0  0  0
 45 83  1  0  0  0  0
 46 63  1  0  0  0  0
 47 62  1  0  0  0  0
 51 77  1  0  0  0  0
 52 78  1  0  0  0  0
 53 88  1  0  0  0  0
 54 90  1  0  0  0  0
 55 86  1  0  0  0  0
 56 84  1  0  0  0  0
 57 87  1  0  0  0  0
 58 92  1  0  0  0  0
 59 89  1  0  0  0  0
 60 91  1  0  0  0  0
 61 93  1  0  0  0  0
 62 95  1  0  0  0  0
 63 94  1  0  0  0  0
M  END
>  <energy>
1090.548183

>  <StdInChI>
InChI=1S/C43H32O20/c44-17-7-23(46)21-12-33(62-42(58)15-3-25(48)36(54)26(49)4-15)40(60-31(21)9-17)14-1-19-20(11-30(53)39(57)35(19)38(56)29(52)2-14)41-34(13-22-24(47)8-18(45)10-32(22)61-41)63-43(59)16-5-27(50)37(55)28(51)6-16/h1-11,33-34,40-41,44-51,53-55,57H,12-13H2,(H,52,56)/t33?,34-,40?,41-/m1/s1



>  <StdInChIKey>
ZEASWHWETFMWCV-XZXVYNCTSA-N



>  <AuxInfo>
1/1/N:5,16,42,43,40,41,44,45,39,38,24,23,22,3,26,25,46,47,2,4,13,12,32,31,35,37,36,34,15,33,10,9,18,17,1,28,27,11,19,14,7,21,20,63,62,55,56,60,61,58,59,51,57,54,53,48,52,49,50,8,6,30,29/E:(3,4)(5,6)(25,26)(27,28)(48,49)(50,51)/it:im/rA:95cCCCCCOCOCCCCCCCCCCCCCCCCCCCCOOCCCCCCCCCCCCCCCCCOOOOOOOOOOOOOOOOHHHHHHHHHHHHHHHHHHHHHHHHHHHHHHHH/rB:d1;;s2;s2d3;;s4s6;;s6;s8;s1;s9;d10;s3s8;s11;s3d15;s7;s14;s1;;;s12s17;s13s18;d4;s20;s21;;;s17s20;s18s21;d12;s13;d19s24;d27;d28;s27;s28;d9;s10;s25d36;d25s34;d26s35;s26d37;d32;s31;d39s44;s38d45;d11;d21;d20;s15;s19;s27;s28;s32;s31;s33;s36;s34;s35;s37;s47;s46;s5;s14;s16;s7;s24;s17;s38;s39;s22;s22;s23;s23;s18;s51;s52;s40;s41;s42;s43;s45;s56;s44;s55;s57;s53;s59;s54;s60;s58;s61;s63;s62;/rC:4.7048,-8.5838,-4.2446;5.8118,-7.3754,-3.7204;6.236,-8.0998,-.9215;6.2569,-6.4054,-4.6175;6.5658,-7.3011,-2.0893;6.5261,-4.2875,-3.6835;7.2783,-5.3062,-4.3523;4.0658,-7.4431,.6379;7.1933,-3.2544,-3.0989;2.8096,-6.9706,.4273;4.0124,-10.0081,-3.1933;8.518,-3.3164,-2.6745;2.2278,-7.04,-.8281;5.0216,-7.4041,-.4489;4.6992,-10.5096,-1.4935;5.6922,-9.8011,-.6709;8.745,-5.5656,-3.7958;4.3813,-8.2845,-1.6035;4.2196,-8.53,-5.5201;9.9834,-7.2943,-2.6189;6.5719,-10.194,-3.2591;9.2144,-4.6278,-2.677;3.155,-7.1855,-1.9955;5.6065,-6.4504,-5.8757;11.3574,-6.931,-3.0253;7.855,-9.8772,-3.9153;13.8897,-5.974,-3.7289;10.2727,-9.7694,-5.3145;9.034,-6.9582,-3.5317;5.8411,-9.1297,-2.6283;9.1063,-2.1884,-2.0837;.8358,-6.8904,-.9269;4.6645,-7.4586,-6.3012;13.5773,-6.2131,-2.3948;9.1387,-9.1781,-5.8447;12.9406,-6.2278,-4.711;10.1954,-10.4195,-4.0886;6.433,-2.1181,-2.8347;2.0718,-6.548,1.5233;11.6828,-6.7168,-4.3671;12.3113,-6.6812,-2.031;7.9184,-9.2793,-5.1822;8.9974,-10.4706,-3.3764;.0675,-6.4913,.158;8.3717,-1.0279,-1.8727;.7145,-6.264,1.3706;7.0241,-1.0205,-2.2203;3.1119,-10.7331,-3.6247;6.2065,-11.3553,-3.4368;9.7515,-7.8874,-1.5725;4.339,-11.8145,-1.1489;3.372,-9.4589,-6.0406;15.1081,-5.4557,-4.0551;11.4484,-9.7364,-6.0041;.1952,-7.1957,-2.0954;10.4211,-2.1859,-1.7146;4.2233,-7.3761,-7.6129;13.2163,-5.9443,-6.0189;14.4898,-5.9417,-1.4134;9.2018,-8.4488,-6.9951;11.2952,-11.0328,-3.5742;6.2462,.0643,-1.936;.0326,-5.7337,2.4271;6.7173,-6.2464,-1.8983;5.6927,-7.586,.43;6.1022,-10.2351,.2342;7.493,-4.9233,-5.3536;5.8328,-5.6705,-6.6023;9.3812,-5.3142,-4.6523;5.3844,-2.1014,-3.0996;2.5448,-6.4382,2.4937;10.2864,-4.4648,-2.8018;9.0889,-5.0862,-1.691;2.5291,-7.5085,-2.8519;3.5607,-6.1984,-2.2468;4.1672,-8.114,-2.5741;3.5424,-12.0215,-1.6707;3.8169,-10.3183,-5.9363;10.9532,-6.8744,-5.1547;12.0725,-6.8223,-.9793;7.0348,-8.9074,-5.6768;8.9435,-11.0172,-2.4366;8.8322,-.1509,-1.4177;10.5292,-2.8421,-1.005;-1.0073,-6.3479,.0656;.1979,-8.1692,-2.1692;4.7439,-8.0566,-8.0809;15.295,-5.7076,-4.976;14.6668,-6.7852,-.9601;11.7905,-8.8282,-5.942;9.0943,-9.0626,-7.7405;12.837,-6.6629,-6.555;11.4563,-10.6319,-2.7025;-.8354,-6.1738,2.4856;6.795,.8611,-2.037;



>  <Formula>
C43 H32 O20



>  <Mw>
868.702200

>  <SMILES>
C12C(O[H])=C(O[H])C([H])=C([C@]3([H])[C@]([H])(OC(=O)C4=C([H])C(O[H])=C(C(O[H])=C4[H])O[H])C([H])([H])C4=C(O[H])C([H])=C(O[H])C([H])=C4O3)C=1C([H])=C(C([H])=C(O[H])C2=O)[C@]1([H])[C@]([H])(OC(=O)C2C([H])=C(O[H])C(=C(O[H])C=2[H])O[H])C([H])([H])C2C(O[H])=C([H])C(O[H])=C([H])C=2O1



>  <CSID>
410681

$$$$
