Wogonin.pdb
  RxDock  02242113283D
librxdock.so/0.1.0
 23 25  0  0  0  0  0  0  0  0999 V2000
  -48.0268   -4.2286   16.6643 O   0  0  0  0  0  0
  -46.0599   -2.6387   17.6397 O   0  0  0  0  0  0
  -49.1345   -0.7757   13.4483 O   0  0  0  0  0  0
  -45.6082   -0.1353   16.5543 O   0  0  0  0  0  0
  -50.4140   -3.0626   13.5754 O   0  0  0  0  0  0
  -48.6285   -2.5347   15.0303 C   0  0  0  0  0  0
  -47.8474   -2.9958   16.0884 C   0  0  0  0  0  0
  -49.0356   -5.0448   16.1754 C   0  0  0  0  0  0
  -46.8288   -2.1946   16.6052 C   0  0  0  0  0  0
  -49.6925   -3.4017   14.5034 C   0  0  0  0  0  0
  -48.4000   -1.2708   14.4820 C   0  0  0  0  0  0
  -49.8472   -4.7162   15.1589 C   0  0  0  0  0  0
  -49.1379   -6.3486   16.8625 C   0  0  0  0  0  0
  -46.5971   -0.9304   16.0607 C   0  0  0  0  0  0
  -47.3811   -0.4700   15.0012 C   0  0  0  0  0  0
  -47.9982   -6.9491   17.4021 C   0  0  0  0  0  0
  -50.3756   -6.9865   16.9766 C   0  0  0  0  0  0
  -48.0940   -8.1792   18.0512 C   0  0  0  0  0  0
  -50.4722   -8.2175   17.6263 C   0  0  0  0  0  0
  -49.3315   -8.8134   18.1634 C   0  0  0  0  0  0
  -44.6477   -2.6436   17.4405 C   0  0  0  0  0  0
  -49.2343   -1.4416   12.7518 H   0  0  0  0  0  0
  -45.7398    0.7731   16.2309 H   0  0  0  0  0  0
  1  7  1  0  0  0
  1  8  1  0  0  0
  2  9  1  0  0  0
  2 21  1  0  0  0
  3 11  1  0  0  0
  3 22  1  0  0  0
  4 14  1  0  0  0
  4 23  1  0  0  0
  5 10  2  0  0  0
  6  7  2  0  0  0
  6 10  1  0  0  0
  6 11  1  0  0  0
  7  9  1  0  0  0
  8 12  2  0  0  0
  8 13  1  0  0  0
  9 14  2  0  0  0
 10 12  1  0  0  0
 11 15  2  0  0  0
 13 16  2  0  0  0
 13 17  1  0  0  0
 14 15  1  0  0  0
 16 18  1  0  0  0
 17 19  2  0  0  0
 18 20  2  0  0  0
 19 20  1  0  0  0
M  END
>  <CHROM.0>
59.44231293,-62.90888537,179.94626292

>  <CHROM.1>
124.88858301,-46.16624645,-165.09139535,-30.50127907,-48.21153729,-3.82717867
16.14583351,-1.95510721,-0.60843091,-0.52235091

>  <Name>
Wogonin.pdb

>  <RI>
-1.04264e+09

>  <Rbt.Current_Directory>
/root/miniconda3/envs/rdock/share/rxdock-2013.1.1_148c5bd1-0/data/ligands/prepped_ligands/Wogonin

>  <Rbt.Executable>
rbdock/0.1.0

>  <Rbt.Library>
librxdock.so/0.1.0

>  <Rbt.Parameter_File>
/root/miniconda3/envs/rdock/share/rxdock-2013.1.1_148c5bd1-0/data/scripts/dock.prm

>  <Rbt.Receptor>
def.prm

>  <SCORE>
-11.0728

>  <SCORE.INTER>
-11.6579

>  <SCORE.INTER.CONST>
1

>  <SCORE.INTER.POLAR>
-0.884448

>  <SCORE.INTER.REPUL>
0.0319057

>  <SCORE.INTER.ROT>
2

>  <SCORE.INTER.VDW>
-16.2103

>  <SCORE.INTER.norm>
-0.555139

>  <SCORE.INTRA>
1.67502

>  <SCORE.INTRA.DIHEDRAL>
1.28955

>  <SCORE.INTRA.DIHEDRAL.0>
6.03438

>  <SCORE.INTRA.POLAR>
0

>  <SCORE.INTRA.POLAR.0>
0

>  <SCORE.INTRA.REPUL>
0

>  <SCORE.INTRA.REPUL.0>
0

>  <SCORE.INTRA.VDW>
1.03025

>  <SCORE.INTRA.VDW.0>
0.298713

>  <SCORE.INTRA.norm>
0.079763

>  <SCORE.RESTR>
0

>  <SCORE.RESTR.CAVITY>
0

>  <SCORE.RESTR.norm>
0

>  <SCORE.SYSTEM>
-1.0899

>  <SCORE.SYSTEM.CONST>
0

>  <SCORE.SYSTEM.DIHEDRAL>
0.0431072

>  <SCORE.SYSTEM.POLAR>
-0.00185237

>  <SCORE.SYSTEM.VDW>
-1.10515

>  <SCORE.SYSTEM.norm>
-0.0518999

>  <SCORE.heavy>
21

>  <SCORE.norm>
-0.527276

$$$$
Wogonin.pdb
  RxDock  02242113283D
librxdock.so/0.1.0
 23 25  0  0  0  0  0  0  0  0999 V2000
  -45.4933   -0.4094   17.3390 O   0  0  0  0  0  0
  -45.8521   -2.4927   15.6421 O   0  0  0  0  0  0
  -50.1538    0.7865   16.7537 O   0  0  0  0  0  0
  -48.3242   -2.9600   14.4933 O   0  0  0  0  0  0
  -48.5245    2.1355   18.3058 O   0  0  0  0  0  0
  -47.8205    0.2391   17.0844 C   0  0  0  0  0  0
  -46.7408   -0.5940   16.7973 C   0  0  0  0  0  0
  -45.3002    0.6582   18.2025 C   0  0  0  0  0  0
  -46.9033   -1.6727   15.9276 C   0  0  0  0  0  0
  -47.6213    1.3662   18.0073 C   0  0  0  0  0  0
  -49.0688    0.0027   16.5047 C   0  0  0  0  0  0
  -46.2608    1.5236   18.5604 C   0  0  0  0  0  0
  -43.9244    0.7610   18.7307 C   0  0  0  0  0  0
  -48.1489   -1.9126   15.3454 C   0  0  0  0  0  0
  -49.2292   -1.0765   15.6338 C   0  0  0  0  0  0
  -43.1464   -0.3879   18.8912 C   0  0  0  0  0  0
  -43.3947    2.0081   19.0713 C   0  0  0  0  0  0
  -41.8478   -0.2917   19.3890 C   0  0  0  0  0  0
  -42.0949    2.1050   19.5693 C   0  0  0  0  0  0
  -41.3219    0.9552   19.7280 C   0  0  0  0  0  0
  -44.8489   -1.9780   14.7687 C   0  0  0  0  0  0
  -49.9779    1.3862   17.4939 H   0  0  0  0  0  0
  -47.4961   -3.4684   14.4404 H   0  0  0  0  0  0
  1  7  1  0  0  0
  1  8  1  0  0  0
  2  9  1  0  0  0
  2 21  1  0  0  0
  3 11  1  0  0  0
  3 22  1  0  0  0
  4 14  1  0  0  0
  4 23  1  0  0  0
  5 10  2  0  0  0
  6  7  2  0  0  0
  6 10  1  0  0  0
  6 11  1  0  0  0
  7  9  1  0  0  0
  8 12  2  0  0  0
  8 13  1  0  0  0
  9 14  2  0  0  0
 10 12  1  0  0  0
 11 15  2  0  0  0
 13 16  2  0  0  0
 13 17  1  0  0  0
 14 15  1  0  0  0
 16 18  1  0  0  0
 17 19  2  0  0  0
 18 20  2  0  0  0
 19 20  1  0  0  0
M  END
>  <CHROM.0>
60.74955375,62.96197344,-175.70768172

>  <CHROM.1>
-74.25612288,-11.15629555,3.24586292,-29.42249171,-46.07302847,-0.10468791
17.30358145,-0.55139550,0.23614840,-2.46347999

>  <Name>
Wogonin.pdb

>  <RI>
-1.04264e+09

>  <Rbt.Current_Directory>
/root/miniconda3/envs/rdock/share/rxdock-2013.1.1_148c5bd1-0/data/ligands/prepped_ligands/Wogonin

>  <Rbt.Executable>
rbdock/0.1.0

>  <Rbt.Library>
librxdock.so/0.1.0

>  <Rbt.Parameter_File>
/root/miniconda3/envs/rdock/share/rxdock-2013.1.1_148c5bd1-0/data/scripts/dock.prm

>  <Rbt.Receptor>
def.prm

>  <SCORE>
-12.6842

>  <SCORE.INTER>
-11.1275

>  <SCORE.INTER.CONST>
1

>  <SCORE.INTER.POLAR>
-1.2479

>  <SCORE.INTER.REPUL>
0.0157583

>  <SCORE.INTER.ROT>
2

>  <SCORE.INTER.VDW>
-14.3635

>  <SCORE.INTER.norm>
-0.529883

>  <SCORE.INTRA>
-0.548477

>  <SCORE.INTRA.DIHEDRAL>
-0.195689

>  <SCORE.INTRA.DIHEDRAL.0>
6.03438

>  <SCORE.INTRA.POLAR>
-0.0749311

>  <SCORE.INTRA.POLAR.0>
0

>  <SCORE.INTRA.REPUL>
0

>  <SCORE.INTRA.REPUL.0>
0

>  <SCORE.INTRA.VDW>
-0.195867

>  <SCORE.INTRA.VDW.0>
0.298713

>  <SCORE.INTRA.norm>
-0.0261179

>  <SCORE.RESTR>
0

>  <SCORE.RESTR.CAVITY>
0

>  <SCORE.RESTR.norm>
0

>  <SCORE.SYSTEM>
-1.00819

>  <SCORE.SYSTEM.CONST>
0

>  <SCORE.SYSTEM.DIHEDRAL>
0.086035

>  <SCORE.SYSTEM.POLAR>
-0.0110349

>  <SCORE.SYSTEM.VDW>
-1.01369

>  <SCORE.SYSTEM.norm>
-0.0480091

>  <SCORE.heavy>
21

>  <SCORE.norm>
-0.60401

$$$$
Wogonin.pdb
  RxDock  02242113283D
librxdock.so/0.1.0
 23 25  0  0  0  0  0  0  0  0999 V2000
  -49.0458   -1.0983   16.8052 O   0  0  0  0  0  0
  -51.6162   -1.6002   17.5046 O   0  0  0  0  0  0
  -49.4797   -4.2809   13.1754 O   0  0  0  0  0  0
  -53.1319   -3.4198   16.0759 O   0  0  0  0  0  0
  -47.2651   -2.9553   13.6461 O   0  0  0  0  0  0
  -49.2030   -2.6824   14.9702 C   0  0  0  0  0  0
  -49.7512   -2.0111   16.0616 C   0  0  0  0  0  0
  -47.7282   -0.8413   16.4578 C   0  0  0  0  0  0
  -51.0725   -2.2533   16.4384 C   0  0  0  0  0  0
  -47.8093   -2.4049   14.5935 C   0  0  0  0  0  0
  -49.9686   -3.6008   14.2486 C   0  0  0  0  0  0
  -47.0927   -1.4178   15.4264 C   0  0  0  0  0  0
  -47.0651    0.1591   17.3192 C   0  0  0  0  0  0
  -51.8413   -3.1707   15.7205 C   0  0  0  0  0  0
  -51.2902   -3.8426   14.6278 C   0  0  0  0  0  0
  -47.8287    1.0249   18.1054 C   0  0  0  0  0  0
  -45.6710    0.2431   17.3520 C   0  0  0  0  0  0
  -47.2037    1.9688   18.9189 C   0  0  0  0  0  0
  -45.0449    1.1875   18.1663 C   0  0  0  0  0  0
  -45.8114    2.0499   18.9495 C   0  0  0  0  0  0
  -51.8396   -2.3658   18.6869 C   0  0  0  0  0  0
  -48.5290   -4.4377   13.2760 H   0  0  0  0  0  0
  -53.5045   -4.0864   15.4727 H   0  0  0  0  0  0
  1  7  1  0  0  0
  1  8  1  0  0  0
  2  9  1  0  0  0
  2 21  1  0  0  0
  3 11  1  0  0  0
  3 22  1  0  0  0
  4 14  1  0  0  0
  4 23  1  0  0  0
  5 10  2  0  0  0
  6  7  2  0  0  0
  6 10  1  0  0  0
  6 11  1  0  0  0
  7  9  1  0  0  0
  8 12  2  0  0  0
  8 13  1  0  0  0
  9 14  2  0  0  0
 10 12  1  0  0  0
 11 15  2  0  0  0
 13 16  2  0  0  0
 13 17  1  0  0  0
 14 15  1  0  0  0
 16 18  1  0  0  0
 17 19  2  0  0  0
 18 20  2  0  0  0
 19 20  1  0  0  0
M  END
>  <CHROM.0>
-63.85030965,-57.19760027,57.21875190

>  <CHROM.1>
-107.87684653,31.18758394,-179.50391722,-18.41203086,-48.98128523,-1.56146466
16.31804574,0.77452923,0.34957291,0.90416806

>  <Name>
Wogonin.pdb

>  <RI>
-1.04264e+09

>  <Rbt.Current_Directory>
/root/miniconda3/envs/rdock/share/rxdock-2013.1.1_148c5bd1-0/data/ligands/prepped_ligands/Wogonin

>  <Rbt.Executable>
rbdock/0.1.0

>  <Rbt.Library>
librxdock.so/0.1.0

>  <Rbt.Parameter_File>
/root/miniconda3/envs/rdock/share/rxdock-2013.1.1_148c5bd1-0/data/scripts/dock.prm

>  <Rbt.Receptor>
def.prm

>  <SCORE>
-9.46072

>  <SCORE.INTER>
-8.87043

>  <SCORE.INTER.CONST>
1

>  <SCORE.INTER.POLAR>
-0.894427

>  <SCORE.INTER.REPUL>
0

>  <SCORE.INTER.ROT>
2

>  <SCORE.INTER.VDW>
-13.2294

>  <SCORE.INTER.norm>
-0.422402

>  <SCORE.INTRA>
0.383848

>  <SCORE.INTRA.DIHEDRAL>
0.101063

>  <SCORE.INTRA.DIHEDRAL.0>
6.03438

>  <SCORE.INTRA.POLAR>
0

>  <SCORE.INTRA.POLAR.0>
0

>  <SCORE.INTRA.REPUL>
0

>  <SCORE.INTRA.REPUL.0>
0

>  <SCORE.INTRA.VDW>
0.333317

>  <SCORE.INTRA.VDW.0>
0.298713

>  <SCORE.INTRA.norm>
0.0182785

>  <SCORE.RESTR>
0

>  <SCORE.RESTR.CAVITY>
0

>  <SCORE.RESTR.norm>
0

>  <SCORE.SYSTEM>
-0.974132

>  <SCORE.SYSTEM.CONST>
0

>  <SCORE.SYSTEM.DIHEDRAL>
0.0994785

>  <SCORE.SYSTEM.VDW>
-1.02387

>  <SCORE.SYSTEM.norm>
-0.0463872

>  <SCORE.heavy>
21

>  <SCORE.norm>
-0.45051

$$$$
Wogonin.pdb
  RxDock  02242113283D
librxdock.so/0.1.0
 23 25  0  0  0  0  0  0  0  0999 V2000
  -51.3224   -6.3164   16.4697 O   0  0  0  0  0  0
  -49.6286   -7.5839   18.1647 O   0  0  0  0  0  0
  -48.0063   -2.8338   15.8629 O   0  0  0  0  0  0
  -47.1409   -6.5140   18.7266 O   0  0  0  0  0  0
  -50.3350   -2.8049   14.6548 O   0  0  0  0  0  0
  -49.7003   -4.5409   16.1268 C   0  0  0  0  0  0
  -50.1008   -5.7401   16.7131 C   0  0  0  0  0  0
  -52.1970   -5.6705   15.6092 C   0  0  0  0  0  0
  -49.2445   -6.4099   17.5876 C   0  0  0  0  0  0
  -50.6216   -3.8586   15.2064 C   0  0  0  0  0  0
  -48.4439   -4.0011   16.4102 C   0  0  0  0  0  0
  -51.9242   -4.5172   14.9803 C   0  0  0  0  0  0
  -53.4789   -6.3785   15.4144 C   0  0  0  0  0  0
  -47.9881   -5.8739   17.8742 C   0  0  0  0  0  0
  -47.5889   -4.6720   17.2864 C   0  0  0  0  0  0
  -54.3520   -5.9829   14.3985 C   0  0  0  0  0  0
  -53.8234   -7.4478   16.2449 C   0  0  0  0  0  0
  -55.5616   -6.6509   14.2136 C   0  0  0  0  0  0
  -55.0337   -8.1169   16.0601 C   0  0  0  0  0  0
  -55.9024   -7.7183   15.0446 C   0  0  0  0  0  0
  -49.3413   -8.7822   17.4466 C   0  0  0  0  0  0
  -47.0705   -2.6909   16.0690 H   0  0  0  0  0  0
  -46.2576   -6.5608   18.3210 H   0  0  0  0  0  0
  1  7  1  0  0  0
  1  8  1  0  0  0
  2  9  1  0  0  0
  2 21  1  0  0  0
  3 11  1  0  0  0
  3 22  1  0  0  0
  4 14  1  0  0  0
  4 23  1  0  0  0
  5 10  2  0  0  0
  6  7  2  0  0  0
  6 10  1  0  0  0
  6 11  1  0  0  0
  7  9  1  0  0  0
  8 12  2  0  0  0
  8 13  1  0  0  0
  9 14  2  0  0  0
 10 12  1  0  0  0
 11 15  2  0  0  0
 13 16  2  0  0  0
 13 17  1  0  0  0
 14 15  1  0  0  0
 16 18  1  0  0  0
 17 19  2  0  0  0
 18 20  2  0  0  0
 19 20  1  0  0  0
M  END
>  <CHROM.0>
-179.55626692,63.42814943,57.69438433

>  <CHROM.1>
88.66049366,-171.42637870,132.23017044,-168.27107740,-50.92341704,-5.82399579
16.25486072,-3.06511559,-0.39085642,-0.52257910

>  <Name>
Wogonin.pdb

>  <RI>
-1.04264e+09

>  <Rbt.Current_Directory>
/root/miniconda3/envs/rdock/share/rxdock-2013.1.1_148c5bd1-0/data/ligands/prepped_ligands/Wogonin

>  <Rbt.Executable>
rbdock/0.1.0

>  <Rbt.Library>
librxdock.so/0.1.0

>  <Rbt.Parameter_File>
/root/miniconda3/envs/rdock/share/rxdock-2013.1.1_148c5bd1-0/data/scripts/dock.prm

>  <Rbt.Receptor>
def.prm

>  <SCORE>
-10.9766

>  <SCORE.INTER>
-10.9712

>  <SCORE.INTER.CONST>
1

>  <SCORE.INTER.POLAR>
-0.20717

>  <SCORE.INTER.REPUL>
0

>  <SCORE.INTER.ROT>
2

>  <SCORE.INTER.VDW>
-17.6669

>  <SCORE.INTER.norm>
-0.52244

>  <SCORE.INTRA>
0.997975

>  <SCORE.INTRA.DIHEDRAL>
1.68277

>  <SCORE.INTRA.DIHEDRAL.0>
6.03438

>  <SCORE.INTRA.POLAR>
0

>  <SCORE.INTRA.POLAR.0>
0

>  <SCORE.INTRA.REPUL>
0

>  <SCORE.INTRA.REPUL.0>
0

>  <SCORE.INTRA.VDW>
0.15659

>  <SCORE.INTRA.VDW.0>
0.298713

>  <SCORE.INTRA.norm>
0.0475226

>  <SCORE.RESTR>
0

>  <SCORE.RESTR.CAVITY>
0

>  <SCORE.RESTR.norm>
0

>  <SCORE.SYSTEM>
-1.00335

>  <SCORE.SYSTEM.CONST>
0

>  <SCORE.SYSTEM.DIHEDRAL>
0.0731737

>  <SCORE.SYSTEM.VDW>
-1.03994

>  <SCORE.SYSTEM.norm>
-0.0477787

>  <SCORE.heavy>
21

>  <SCORE.norm>
-0.522696

$$$$
Wogonin.pdb
  RxDock  02242113283D
librxdock.so/0.1.0
 23 25  0  0  0  0  0  0  0  0999 V2000
  -50.2488    0.0170   15.0814 O   0  0  0  0  0  0
  -51.0195    0.8406   17.5464 O   0  0  0  0  0  0
  -51.3409   -4.5367   16.3322 O   0  0  0  0  0  0
  -51.9455   -0.9802   19.4109 O   0  0  0  0  0  0
  -50.4043   -3.8985   13.9660 O   0  0  0  0  0  0
  -50.7773   -2.2847   15.6511 C   0  0  0  0  0  0
  -50.6995   -0.9296   15.9673 C   0  0  0  0  0  0
  -49.8463   -0.3976   13.8209 C   0  0  0  0  0  0
  -51.0920   -0.4835   17.2296 C   0  0  0  0  0  0
  -50.3604   -2.7260   14.3121 C   0  0  0  0  0  0
  -51.2454   -3.2039   16.5925 C   0  0  0  0  0  0
  -49.8805   -1.6701   13.3975 C   0  0  0  0  0  0
  -49.3849    0.7009   12.9474 C   0  0  0  0  0  0
  -51.5600   -1.3986   18.1739 C   0  0  0  0  0  0
  -51.6366   -2.7559   17.8555 C   0  0  0  0  0  0
  -50.1494    1.8624   12.8169 C   0  0  0  0  0  0
  -48.1809    0.5832   12.2485 C   0  0  0  0  0  0
  -49.7144    2.8996   11.9933 C   0  0  0  0  0  0
  -47.7449    1.6211   11.4242 C   0  0  0  0  0  0
  -48.5116    2.7789   11.2969 C   0  0  0  0  0  0
  -49.9332    1.2488   18.3755 C   0  0  0  0  0  0
  -51.1076   -4.7211   15.4101 H   0  0  0  0  0  0
  -52.2427   -1.7491   19.9280 H   0  0  0  0  0  0
  1  7  1  0  0  0
  1  8  1  0  0  0
  2  9  1  0  0  0
  2 21  1  0  0  0
  3 11  1  0  0  0
  3 22  1  0  0  0
  4 14  1  0  0  0
  4 23  1  0  0  0
  5 10  2  0  0  0
  6  7  2  0  0  0
  6 10  1  0  0  0
  6 11  1  0  0  0
  7  9  1  0  0  0
  8 12  2  0  0  0
  8 13  1  0  0  0
  9 14  2  0  0  0
 10 12  1  0  0  0
 11 15  2  0  0  0
 13 16  2  0  0  0
 13 17  1  0  0  0
 14 15  1  0  0  0
 16 18  1  0  0  0
 17 19  2  0  0  0
 18 20  2  0  0  0
 19 20  1  0  0  0
M  END
>  <CHROM.0>
178.39995847,-64.33416365,174.82460292

>  <CHROM.1>
-103.06928731,-4.21813470,179.81136360,-48.20211019,-50.30576598,-0.64801474
15.16909950,0.13211622,1.21443540,0.45825930

>  <Name>
Wogonin.pdb

>  <RI>
-1.04264e+09

>  <Rbt.Current_Directory>
/root/miniconda3/envs/rdock/share/rxdock-2013.1.1_148c5bd1-0/data/ligands/prepped_ligands/Wogonin

>  <Rbt.Executable>
rbdock/0.1.0

>  <Rbt.Library>
librxdock.so/0.1.0

>  <Rbt.Parameter_File>
/root/miniconda3/envs/rdock/share/rxdock-2013.1.1_148c5bd1-0/data/scripts/dock.prm

>  <Rbt.Receptor>
def.prm

>  <SCORE>
-14.9456

>  <SCORE.INTER>
-14.3209

>  <SCORE.INTER.CONST>
1

>  <SCORE.INTER.POLAR>
-0.737911

>  <SCORE.INTER.REPUL>
0.0269008

>  <SCORE.INTER.ROT>
2

>  <SCORE.INTER.VDW>
-19.3465

>  <SCORE.INTER.norm>
-0.681946

>  <SCORE.INTRA>
0.41613

>  <SCORE.INTRA.DIHEDRAL>
1.25409

>  <SCORE.INTRA.DIHEDRAL.0>
6.03438

>  <SCORE.INTRA.POLAR>
0

>  <SCORE.INTRA.POLAR.0>
0

>  <SCORE.INTRA.REPUL>
0

>  <SCORE.INTRA.REPUL.0>
0

>  <SCORE.INTRA.VDW>
-0.210914

>  <SCORE.INTRA.VDW.0>
0.298713

>  <SCORE.INTRA.norm>
0.0198157

>  <SCORE.RESTR>
0

>  <SCORE.RESTR.CAVITY>
0

>  <SCORE.RESTR.norm>
0

>  <SCORE.SYSTEM>
-1.04091

>  <SCORE.SYSTEM.CONST>
0

>  <SCORE.SYSTEM.DIHEDRAL>
0.169849

>  <SCORE.SYSTEM.VDW>
-1.12584

>  <SCORE.SYSTEM.norm>
-0.0495672

>  <SCORE.heavy>
21

>  <SCORE.norm>
-0.711697

$$$$
Wogonin.pdb
  RxDock  02242113283D
librxdock.so/0.1.0
 23 25  0  0  0  0  0  0  0  0999 V2000
  -50.0081    0.2507   15.0465 O   0  0  0  0  0  0
  -50.2976    1.0789   17.6114 O   0  0  0  0  0  0
  -51.2613   -4.2259   16.4185 O   0  0  0  0  0  0
  -51.0588   -0.7018   19.5859 O   0  0  0  0  0  0
  -50.6701   -3.6132   13.9369 O   0  0  0  0  0  0
  -50.6285   -2.0125   15.6745 C   0  0  0  0  0  0
  -50.3872   -0.6756   15.9857 C   0  0  0  0  0  0
  -49.8513   -0.1668   13.7336 C   0  0  0  0  0  0
  -50.5312   -0.2275   17.2990 C   0  0  0  0  0  0
  -50.4725   -2.4561   14.2815 C   0  0  0  0  0  0
  -51.0134   -2.9114   16.6715 C   0  0  0  0  0  0
  -50.0602   -1.4226   13.3102 C   0  0  0  0  0  0
  -49.4469    0.9097   12.8062 C   0  0  0  0  0  0
  -50.9152   -1.1224   18.2989 C   0  0  0  0  0  0
  -51.1559   -2.4614   17.9853 C   0  0  0  0  0  0
  -48.2501    0.8094   12.0933 C   0  0  0  0  0  0
  -50.2605    2.0329   12.6373 C   0  0  0  0  0  0
  -47.8681    1.8245   11.2175 C   0  0  0  0  0  0
  -49.8788    3.0491   11.7607 C   0  0  0  0  0  0
  -48.6829    2.9446   11.0511 C   0  0  0  0  0  0
  -49.1301    1.3613   18.3804 C   0  0  0  0  0  0
  -51.3665   -4.7180   17.2463 H   0  0  0  0  0  0
  -51.2348   -1.4721   20.1541 H   0  0  0  0  0  0
  1  7  1  0  0  0
  1  8  1  0  0  0
  2  9  1  0  0  0
  2 21  1  0  0  0
  3 11  1  0  0  0
  3 22  1  0  0  0
  4 14  1  0  0  0
  4 23  1  0  0  0
  5 10  2  0  0  0
  6  7  2  0  0  0
  6 10  1  0  0  0
  6 11  1  0  0  0
  7  9  1  0  0  0
  8 12  2  0  0  0
  8 13  1  0  0  0
  9 14  2  0  0  0
 10 12  1  0  0  0
 11 15  2  0  0  0
 13 16  2  0  0  0
 13 17  1  0  0  0
 14 15  1  0  0  0
 16 18  1  0  0  0
 17 19  2  0  0  0
 18 20  2  0  0  0
 19 20  1  0  0  0
M  END
>  <CHROM.0>
-179.88571482,60.96464193,56.90452030

>  <CHROM.1>
-109.54800842,170.40182069,-173.97095331,120.23791675,-50.10986100,-0.41149093
15.14905952,-0.43308480,1.28366711,1.01234909

>  <Name>
Wogonin.pdb

>  <RI>
-1.04264e+09

>  <Rbt.Current_Directory>
/root/miniconda3/envs/rdock/share/rxdock-2013.1.1_148c5bd1-0/data/ligands/prepped_ligands/Wogonin

>  <Rbt.Executable>
rbdock/0.1.0

>  <Rbt.Library>
librxdock.so/0.1.0

>  <Rbt.Parameter_File>
/root/miniconda3/envs/rdock/share/rxdock-2013.1.1_148c5bd1-0/data/scripts/dock.prm

>  <Rbt.Receptor>
def.prm

>  <SCORE>
-14.2931

>  <SCORE.INTER>
-14.371

>  <SCORE.INTER.CONST>
1

>  <SCORE.INTER.POLAR>
-0.724351

>  <SCORE.INTER.REPUL>
0

>  <SCORE.INTER.ROT>
2

>  <SCORE.INTER.VDW>
-19.3082

>  <SCORE.INTER.norm>
-0.684333

>  <SCORE.INTRA>
1.05694

>  <SCORE.INTRA.DIHEDRAL>
2.03197

>  <SCORE.INTRA.DIHEDRAL.0>
6.03438

>  <SCORE.INTRA.POLAR>
0

>  <SCORE.INTRA.POLAR.0>
0

>  <SCORE.INTRA.REPUL>
0

>  <SCORE.INTRA.REPUL.0>
0

>  <SCORE.INTRA.VDW>
0.0409527

>  <SCORE.INTRA.VDW.0>
0.298713

>  <SCORE.INTRA.norm>
0.0503303

>  <SCORE.RESTR>
0

>  <SCORE.RESTR.CAVITY>
0

>  <SCORE.RESTR.norm>
0

>  <SCORE.SYSTEM>
-0.97899

>  <SCORE.SYSTEM.CONST>
0

>  <SCORE.SYSTEM.DIHEDRAL>
0.0308429

>  <SCORE.SYSTEM.VDW>
-0.994411

>  <SCORE.SYSTEM.norm>
-0.0466186

>  <SCORE.heavy>
21

>  <SCORE.norm>
-0.680622

$$$$
Wogonin.pdb
  RxDock  02242113283D
librxdock.so/0.1.0
 23 25  0  0  0  0  0  0  0  0999 V2000
  -46.5931   -0.8317   17.4831 O   0  0  0  0  0  0
  -47.2209    0.4791   19.7713 O   0  0  0  0  0  0
  -42.1546   -1.6543   19.2482 O   0  0  0  0  0  0
  -45.3572    0.7403   21.7980 O   0  0  0  0  0  0
  -42.9199   -2.4883   16.8813 O   0  0  0  0  0  0
  -44.3536   -1.2737   18.3140 C   0  0  0  0  0  0
  -45.6296   -0.7314   18.4554 C   0  0  0  0  0  0
  -46.2773   -1.4947   16.3069 C   0  0  0  0  0  0
  -45.9745   -0.0537   19.6251 C   0  0  0  0  0  0
  -44.0188   -1.9858   17.0720 C   0  0  0  0  0  0
  -43.4128   -1.1422   19.3377 C   0  0  0  0  0  0
  -45.0883   -2.0634   16.0562 C   0  0  0  0  0  0
  -47.3863   -1.5486   15.3325 C   0  0  0  0  0  0
  -45.0374    0.0807   20.6507 C   0  0  0  0  0  0
  -43.7594   -0.4628   20.5069 C   0  0  0  0  0  0
  -47.4412   -2.5756   14.3875 C   0  0  0  0  0  0
  -48.3861   -0.5730   15.3524 C   0  0  0  0  0  0
  -48.4878   -2.6275   13.4680 C   0  0  0  0  0  0
  -49.4340   -0.6245   14.4326 C   0  0  0  0  0  0
  -49.4845   -1.6517   13.4908 C   0  0  0  0  0  0
  -47.5277    1.6313   18.9888 C   0  0  0  0  0  0
  -42.0764   -2.2322   18.4746 H   0  0  0  0  0  0
  -46.3023    0.9714   21.7787 H   0  0  0  0  0  0
  1  7  1  0  0  0
  1  8  1  0  0  0
  2  9  1  0  0  0
  2 21  1  0  0  0
  3 11  1  0  0  0
  3 22  1  0  0  0
  4 14  1  0  0  0
  4 23  1  0  0  0
  5 10  2  0  0  0
  6  7  2  0  0  0
  6 10  1  0  0  0
  6 11  1  0  0  0
  7  9  1  0  0  0
  8 12  2  0  0  0
  8 13  1  0  0  0
  9 14  2  0  0  0
 10 12  1  0  0  0
 11 15  2  0  0  0
 13 16  2  0  0  0
 13 17  1  0  0  0
 14 15  1  0  0  0
 16 18  1  0  0  0
 17 19  2  0  0  0
 18 20  2  0  0  0
 19 20  1  0  0  0
M  END
>  <CHROM.0>
-63.94127460,-66.31981855,57.07554958

>  <CHROM.1>
-71.50980950,-10.00180431,5.97212894,-154.40249081,-45.95607831,-0.95832762
17.56691801,2.23897044,0.39767157,-2.08317067

>  <Name>
Wogonin.pdb

>  <RI>
-1.04264e+09

>  <Rbt.Current_Directory>
/root/miniconda3/envs/rdock/share/rxdock-2013.1.1_148c5bd1-0/data/ligands/prepped_ligands/Wogonin

>  <Rbt.Executable>
rbdock/0.1.0

>  <Rbt.Library>
librxdock.so/0.1.0

>  <Rbt.Parameter_File>
/root/miniconda3/envs/rdock/share/rxdock-2013.1.1_148c5bd1-0/data/scripts/dock.prm

>  <Rbt.Receptor>
def.prm

>  <SCORE>
-11.2904

>  <SCORE.INTER>
-9.65487

>  <SCORE.INTER.CONST>
1

>  <SCORE.INTER.POLAR>
-0.657461

>  <SCORE.INTER.REPUL>
0

>  <SCORE.INTER.ROT>
2

>  <SCORE.INTER.VDW>
-14.8195

>  <SCORE.INTER.norm>
-0.459756

>  <SCORE.INTRA>
-0.644315

>  <SCORE.INTRA.DIHEDRAL>
-0.653558

>  <SCORE.INTRA.DIHEDRAL.0>
6.03438

>  <SCORE.INTRA.POLAR>
-0.0839523

>  <SCORE.INTRA.POLAR.0>
0

>  <SCORE.INTRA.REPUL>
0

>  <SCORE.INTRA.REPUL.0>
0

>  <SCORE.INTRA.VDW>
-0.032098

>  <SCORE.INTRA.VDW.0>
0.298713

>  <SCORE.INTRA.norm>
-0.0306817

>  <SCORE.RESTR>
0.000599895

>  <SCORE.RESTR.CAVITY>
0.000599895

>  <SCORE.RESTR.norm>
2.85664e-05

>  <SCORE.SYSTEM>
-0.991803

>  <SCORE.SYSTEM.CONST>
0

>  <SCORE.SYSTEM.DIHEDRAL>
0.260024

>  <SCORE.SYSTEM.VDW>
-1.12181

>  <SCORE.SYSTEM.norm>
-0.0472287

>  <SCORE.heavy>
21

>  <SCORE.norm>
-0.537638

$$$$
Wogonin.pdb
  RxDock  02242113283D
librxdock.so/0.1.0
 23 25  0  0  0  0  0  0  0  0999 V2000
  -50.0348    0.1378   15.2507 O   0  0  0  0  0  0
  -49.6678    0.8686   17.8352 O   0  0  0  0  0  0
  -52.4999   -3.7500   16.7675 O   0  0  0  0  0  0
  -50.6922   -0.6725   19.8906 O   0  0  0  0  0  0
  -52.0943   -3.2258   14.2290 O   0  0  0  0  0  0
  -51.2781   -1.8283   15.9507 C   0  0  0  0  0  0
  -50.5642   -0.6645   16.2304 C   0  0  0  0  0  0
  -50.2124   -0.2331   13.9265 C   0  0  0  0  0  0
  -50.3644   -0.2689   17.5533 C   0  0  0  0  0  0
  -51.4764   -2.2191   14.5473 C   0  0  0  0  0  0
  -51.7957   -2.6061   16.9887 C   0  0  0  0  0  0
  -50.8848   -1.3248   13.5315 C   0  0  0  0  0  0
  -49.6077    0.7018   12.9556 C   0  0  0  0  0  0
  -50.8795   -1.0434   18.5940 C   0  0  0  0  0  0
  -51.5938   -2.2094   18.3118 C   0  0  0  0  0  0
  -48.3270    0.4608   12.4530 C   0  0  0  0  0  0
  -50.3145    1.8310   12.5349 C   0  0  0  0  0  0
  -47.7559    1.3422   11.5363 C   0  0  0  0  0  0
  -49.7436    2.7135   11.6172 C   0  0  0  0  0  0
  -48.4646    2.4688   11.1182 C   0  0  0  0  0  0
  -50.3976    1.9465   18.4178 C   0  0  0  0  0  0
  -52.8669   -3.7560   15.8710 H   0  0  0  0  0  0
  -51.2467   -1.2301   20.4638 H   0  0  0  0  0  0
  1  7  1  0  0  0
  1  8  1  0  0  0
  2  9  1  0  0  0
  2 21  1  0  0  0
  3 11  1  0  0  0
  3 22  1  0  0  0
  4 14  1  0  0  0
  4 23  1  0  0  0
  5 10  2  0  0  0
  6  7  2  0  0  0
  6 10  1  0  0  0
  6 11  1  0  0  0
  7  9  1  0  0  0
  8 12  2  0  0  0
  8 13  1  0  0  0
  9 14  2  0  0  0
 10 12  1  0  0  0
 11 15  2  0  0  0
 13 16  2  0  0  0
 13 17  1  0  0  0
 14 15  1  0  0  0
 16 18  1  0  0  0
 17 19  2  0  0  0
 18 20  2  0  0  0
 19 20  1  0  0  0
M  END
>  <CHROM.0>
177.40519637,-174.35296803,-178.29945001

>  <CHROM.1>
112.88352909,-21.55492563,169.92187573,94.96453390,-50.44393108,-0.39149129
15.35685721,-0.85270150,1.07380302,1.39368941

>  <Name>
Wogonin.pdb

>  <RI>
-1.04264e+09

>  <Rbt.Current_Directory>
/root/miniconda3/envs/rdock/share/rxdock-2013.1.1_148c5bd1-0/data/ligands/prepped_ligands/Wogonin

>  <Rbt.Executable>
rbdock/0.1.0

>  <Rbt.Library>
librxdock.so/0.1.0

>  <Rbt.Parameter_File>
/root/miniconda3/envs/rdock/share/rxdock-2013.1.1_148c5bd1-0/data/scripts/dock.prm

>  <Rbt.Receptor>
def.prm

>  <SCORE>
-13.2886

>  <SCORE.INTER>
-13.7325

>  <SCORE.INTER.CONST>
1

>  <SCORE.INTER.POLAR>
-0.0588559

>  <SCORE.INTER.REPUL>
0.00667641

>  <SCORE.INTER.ROT>
2

>  <SCORE.INTER.VDW>
-20.9658

>  <SCORE.INTER.norm>
-0.653928

>  <SCORE.INTRA>
1.46485

>  <SCORE.INTRA.DIHEDRAL>
3.60925

>  <SCORE.INTRA.DIHEDRAL.0>
6.03438

>  <SCORE.INTRA.POLAR>
0

>  <SCORE.INTRA.POLAR.0>
0

>  <SCORE.INTRA.REPUL>
0

>  <SCORE.INTRA.REPUL.0>
0

>  <SCORE.INTRA.VDW>
-0.339772

>  <SCORE.INTRA.VDW.0>
0.298713

>  <SCORE.INTRA.norm>
0.0697549

>  <SCORE.RESTR>
0

>  <SCORE.RESTR.CAVITY>
0

>  <SCORE.RESTR.norm>
0

>  <SCORE.SYSTEM>
-1.02101

>  <SCORE.SYSTEM.CONST>
0

>  <SCORE.SYSTEM.DIHEDRAL>
0.180667

>  <SCORE.SYSTEM.POLAR>
-0.00598605

>  <SCORE.SYSTEM.VDW>
-1.091

>  <SCORE.SYSTEM.norm>
-0.0486198

>  <SCORE.heavy>
21

>  <SCORE.norm>
-0.632793

$$$$
Wogonin.pdb
  RxDock  02242113283D
librxdock.so/0.1.0
 23 25  0  0  0  0  0  0  0  0999 V2000
  -47.3783   -2.6042   15.9692 O   0  0  0  0  0  0
  -49.0986   -4.6822   16.2350 O   0  0  0  0  0  0
  -50.4099   -0.5874   12.7701 O   0  0  0  0  0  0
  -51.4599   -4.7448   14.7964 O   0  0  0  0  0  0
  -48.1416    0.5262   13.4758 O   0  0  0  0  0  0
  -48.8572   -1.5454   14.3589 C   0  0  0  0  0  0
  -48.5349   -2.5839   15.2306 C   0  0  0  0  0  0
  -46.4900   -1.5482   15.8335 C   0  0  0  0  0  0
  -49.4063   -3.6627   15.3838 C   0  0  0  0  0  0
  -47.9219   -0.4195   14.2201 C   0  0  0  0  0  0
  -50.0498   -1.5769   13.6330 C   0  0  0  0  0  0
  -46.6910   -0.4901   15.0334 C   0  0  0  0  0  0
  -45.2825   -1.6681   16.6760 C   0  0  0  0  0  0
  -50.5992   -3.6987   14.6599 C   0  0  0  0  0  0
  -50.9199   -2.6577   13.7866 C   0  0  0  0  0  0
  -45.3778   -1.5320   18.0628 C   0  0  0  0  0  0
  -44.0396   -1.9194   16.0896 C   0  0  0  0  0  0
  -44.2389   -1.6457   18.8587 C   0  0  0  0  0  0
  -42.8994   -2.0335   16.8856 C   0  0  0  0  0  0
  -42.9994   -1.8967   18.2698 C   0  0  0  0  0  0
  -49.2179   -4.4174   17.6313 C   0  0  0  0  0  0
  -49.7436    0.1159   12.7613 H   0  0  0  0  0  0
  -51.0951   -5.3741   15.4428 H   0  0  0  0  0  0
  1  7  1  0  0  0
  1  8  1  0  0  0
  2  9  1  0  0  0
  2 21  1  0  0  0
  3 11  1  0  0  0
  3 22  1  0  0  0
  4 14  1  0  0  0
  4 23  1  0  0  0
  5 10  2  0  0  0
  6  7  2  0  0  0
  6 10  1  0  0  0
  6 11  1  0  0  0
  7  9  1  0  0  0
  8 12  2  0  0  0
  8 13  1  0  0  0
  9 14  2  0  0  0
 10 12  1  0  0  0
 11 15  2  0  0  0
 13 16  2  0  0  0
 13 17  1  0  0  0
 14 15  1  0  0  0
 16 18  1  0  0  0
 17 19  2  0  0  0
 18 20  2  0  0  0
 19 20  1  0  0  0
M  END
>  <CHROM.0>
61.56332678,-66.27424951,-60.59705522

>  <CHROM.1>
73.89747363,-1.28760074,0.52673784,-69.96341557,-47.71695511,-2.19623201
15.58288460,0.17885934,0.46029445,2.45113124

>  <Name>
Wogonin.pdb

>  <RI>
-1.04264e+09

>  <Rbt.Current_Directory>
/root/miniconda3/envs/rdock/share/rxdock-2013.1.1_148c5bd1-0/data/ligands/prepped_ligands/Wogonin

>  <Rbt.Executable>
rbdock/0.1.0

>  <Rbt.Library>
librxdock.so/0.1.0

>  <Rbt.Parameter_File>
/root/miniconda3/envs/rdock/share/rxdock-2013.1.1_148c5bd1-0/data/scripts/dock.prm

>  <Rbt.Receptor>
def.prm

>  <SCORE>
-13.9284

>  <SCORE.INTER>
-13.1944

>  <SCORE.INTER.CONST>
1

>  <SCORE.INTER.POLAR>
-1.23012

>  <SCORE.INTER.REPUL>
0

>  <SCORE.INTER.ROT>
2

>  <SCORE.INTER.VDW>
-16.412

>  <SCORE.INTER.norm>
-0.628303

>  <SCORE.INTRA>
0.282294

>  <SCORE.INTRA.DIHEDRAL>
2.66036

>  <SCORE.INTRA.DIHEDRAL.0>
6.03438

>  <SCORE.INTRA.POLAR>
-0.0726978

>  <SCORE.INTRA.POLAR.0>
0

>  <SCORE.INTRA.REPUL>
0

>  <SCORE.INTRA.REPUL.0>
0

>  <SCORE.INTRA.VDW>
-0.800712

>  <SCORE.INTRA.VDW.0>
0.298713

>  <SCORE.INTRA.norm>
0.0134426

>  <SCORE.RESTR>
0.000617787

>  <SCORE.RESTR.CAVITY>
0.000617787

>  <SCORE.RESTR.norm>
2.94184e-05

>  <SCORE.SYSTEM>
-1.0169

>  <SCORE.SYSTEM.CONST>
0

>  <SCORE.SYSTEM.DIHEDRAL>
0.198963

>  <SCORE.SYSTEM.VDW>
-1.11638

>  <SCORE.SYSTEM.norm>
-0.0484239

>  <SCORE.heavy>
21

>  <SCORE.norm>
-0.663255

$$$$
Wogonin.pdb
  RxDock  02242113283D
librxdock.so/0.1.0
 23 25  0  0  0  0  0  0  0  0999 V2000
  -49.8866   -2.8987   16.1074 O   0  0  0  0  0  0
  -47.6666   -3.1798   17.6374 O   0  0  0  0  0  0
  -47.5198    0.3356   13.3815 O   0  0  0  0  0  0
  -45.3787   -1.7317   17.0740 O   0  0  0  0  0  0
  -50.0043   -0.3677   12.9169 O   0  0  0  0  0  0
  -48.7524   -1.2704   14.7061 C   0  0  0  0  0  0
  -48.7797   -2.1549   15.7828 C   0  0  0  0  0  0
  -51.0282   -2.7552   15.3336 C   0  0  0  0  0  0
  -47.6481   -2.3161   16.5828 C   0  0  0  0  0  0
  -49.9583   -1.1233   13.8779 C   0  0  0  0  0  0
  -47.5969   -0.5397   14.4214 C   0  0  0  0  0  0
  -51.1229   -1.9427   14.2703 C   0  0  0  0  0  0
  -52.1569   -3.6043   15.7668 C   0  0  0  0  0  0
  -46.4912   -1.5874   16.3024 C   0  0  0  0  0  0
  -46.4660   -0.7013   15.2237 C   0  0  0  0  0  0
  -53.1157   -4.0231   14.8416 C   0  0  0  0  0  0
  -52.2697   -3.9932   17.1039 C   0  0  0  0  0  0
  -54.1807   -4.8249   15.2494 C   0  0  0  0  0  0
  -53.3353   -4.7959   17.5126 C   0  0  0  0  0  0
  -54.2904   -5.2115   16.5853 C   0  0  0  0  0  0
  -47.8556   -4.5615   17.3388 C   0  0  0  0  0  0
  -46.8265    0.0665   12.7607 H   0  0  0  0  0  0
  -44.6300   -1.2884   16.6381 H   0  0  0  0  0  0
  1  7  1  0  0  0
  1  8  1  0  0  0
  2  9  1  0  0  0
  2 21  1  0  0  0
  3 11  1  0  0  0
  3 22  1  0  0  0
  4 14  1  0  0  0
  4 23  1  0  0  0
  5 10  2  0  0  0
  6  7  2  0  0  0
  6 10  1  0  0  0
  6 11  1  0  0  0
  7  9  1  0  0  0
  8 12  2  0  0  0
  8 13  1  0  0  0
  9 14  2  0  0  0
 10 12  1  0  0  0
 11 15  2  0  0  0
 13 16  2  0  0  0
 13 17  1  0  0  0
 14 15  1  0  0  0
 16 18  1  0  0  0
 17 19  2  0  0  0
 18 20  2  0  0  0
 19 20  1  0  0  0
M  END
>  <CHROM.0>
-170.34190552,-53.23147798,-53.70576625

>  <CHROM.1>
63.33640730,-119.47767986,169.17429096,-152.34875501,-49.67541743,-2.50311544
15.62295045,-2.76431447,-0.31446647,-0.86593667

>  <Name>
Wogonin.pdb

>  <RI>
-1.04264e+09

>  <Rbt.Current_Directory>
/root/miniconda3/envs/rdock/share/rxdock-2013.1.1_148c5bd1-0/data/ligands/prepped_ligands/Wogonin

>  <Rbt.Executable>
rbdock/0.1.0

>  <Rbt.Library>
librxdock.so/0.1.0

>  <Rbt.Parameter_File>
/root/miniconda3/envs/rdock/share/rxdock-2013.1.1_148c5bd1-0/data/scripts/dock.prm

>  <Rbt.Receptor>
def.prm

>  <SCORE>
-16.1791

>  <SCORE.INTER>
-17.2763

>  <SCORE.INTER.CONST>
1

>  <SCORE.INTER.POLAR>
-2.38341

>  <SCORE.INTER.REPUL>
0.000773096

>  <SCORE.INTER.ROT>
2

>  <SCORE.INTER.VDW>
-16.5765

>  <SCORE.INTER.norm>
-0.82268

>  <SCORE.INTRA>
1.76889

>  <SCORE.INTRA.DIHEDRAL>
2.60121

>  <SCORE.INTRA.DIHEDRAL.0>
6.03438

>  <SCORE.INTRA.POLAR>
0

>  <SCORE.INTRA.POLAR.0>
0

>  <SCORE.INTRA.REPUL>
0

>  <SCORE.INTRA.REPUL.0>
0

>  <SCORE.INTRA.VDW>
0.468286

>  <SCORE.INTRA.VDW.0>
0.298713

>  <SCORE.INTRA.norm>
0.0842328

>  <SCORE.RESTR>
0

>  <SCORE.RESTR.CAVITY>
0

>  <SCORE.RESTR.norm>
0

>  <SCORE.SYSTEM>
-0.671717

>  <SCORE.SYSTEM.CONST>
0

>  <SCORE.SYSTEM.DIHEDRAL>
0.534189

>  <SCORE.SYSTEM.POLAR>
-0.0134679

>  <SCORE.SYSTEM.VDW>
-0.89302

>  <SCORE.SYSTEM.norm>
-0.0319865

>  <SCORE.heavy>
21

>  <SCORE.norm>
-0.770433

$$$$
