Wogonin.pdb
  RxDock  02242112183D
librxdock.so/0.1.0
 23 25  0  0  0  0  0  0  0  0999 V2000
  -50.0847   -4.1942   16.2452 O   0  0  0  0  0  0
  -52.6192   -3.3388   15.8064 O   0  0  0  0  0  0
  -51.8448   -8.4871   17.6471 O   0  0  0  0  0  0
  -54.7690   -5.0147   16.2743 O   0  0  0  0  0  0
  -49.2769   -7.9516   17.5974 O   0  0  0  0  0  0
  -50.9078   -6.3654   16.9590 C   0  0  0  0  0  0
  -51.1136   -5.0675   16.4948 C   0  0  0  0  0  0
  -48.7857   -4.6221   16.4739 C   0  0  0  0  0  0
  -52.4096   -4.6069   16.2611 C   0  0  0  0  0  0
  -49.5311   -6.8253   17.1931 C   0  0  0  0  0  0
  -51.9934   -7.2117   17.1947 C   0  0  0  0  0  0
  -48.4603   -5.8475   16.9127 C   0  0  0  0  0  0
  -47.7572   -3.6066   16.1684 C   0  0  0  0  0  0
  -53.4977   -5.4490   16.4958 C   0  0  0  0  0  0
  -53.2895   -6.7487   16.9614 C   0  0  0  0  0  0
  -47.9083   -2.7644   15.0645 C   0  0  0  0  0  0
  -46.6290   -3.4832   16.9831 C   0  0  0  0  0  0
  -46.9385   -1.8054   14.7759 C   0  0  0  0  0  0
  -45.6581   -2.5234   16.6950 C   0  0  0  0  0  0
  -45.8132   -1.6848   15.5916 C   0  0  0  0  0  0
  -52.0322   -2.9958   14.5527 C   0  0  0  0  0  0
  -52.6916   -8.8377   17.9611 H   0  0  0  0  0  0
  -54.7394   -4.0981   15.9489 H   0  0  0  0  0  0
  1  7  1  0  0  0
  1  8  1  0  0  0
  2  9  1  0  0  0
  2 21  1  0  0  0
  3 11  1  0  0  0
  3 22  1  0  0  0
  4 14  1  0  0  0
  4 23  1  0  0  0
  5 10  2  0  0  0
  6  7  2  0  0  0
  6 10  1  0  0  0
  6 11  1  0  0  0
  7  9  1  0  0  0
  8 12  2  0  0  0
  8 13  1  0  0  0
  9 14  2  0  0  0
 10 12  1  0  0  0
 11 15  2  0  0  0
 13 16  2  0  0  0
 13 17  1  0  0  0
 14 15  1  0  0  0
 16 18  1  0  0  0
 17 19  2  0  0  0
 18 20  2  0  0  0
 19 20  1  0  0  0
M  END
>  <CHROM.0>
54.31176235,176.65986457,31.31452477

>  <CHROM.1>
59.94409181,165.67207064,0.38992127,-38.09476095,-50.17007296,-4.82291245
16.39769706,0.53445741,-0.11120794,-0.42390728

>  <Name>
Wogonin.pdb

>  <RI>
-5.05765e+08

>  <Rbt.Current_Directory>
/root/miniconda3/envs/rdock/share/rxdock-2013.1.1_148c5bd1-0/data/ligands/prepped_ligands/Wogonin

>  <Rbt.Executable>
rbdock/0.1.0

>  <Rbt.Library>
librxdock.so/0.1.0

>  <Rbt.Parameter_File>
/root/miniconda3/envs/rdock/share/rxdock-2013.1.1_148c5bd1-0/data/scripts/dock.prm

>  <Rbt.Receptor>
def.prm

>  <SCORE>
-13.3662

>  <SCORE.INTER>
-13.4104

>  <SCORE.INTER.CONST>
1

>  <SCORE.INTER.POLAR>
-0.936254

>  <SCORE.INTER.REPUL>
0.0148916

>  <SCORE.INTER.ROT>
2

>  <SCORE.INTER.VDW>
-17.7016

>  <SCORE.INTER.norm>
-0.638593

>  <SCORE.INTRA>
0.0490051

>  <SCORE.INTRA.DIHEDRAL>
-0.278253

>  <SCORE.INTRA.DIHEDRAL.0>
6.03438

>  <SCORE.INTRA.POLAR>
-0.118151

>  <SCORE.INTRA.POLAR.0>
0

>  <SCORE.INTRA.REPUL>
0

>  <SCORE.INTRA.REPUL.0>
0

>  <SCORE.INTRA.VDW>
0.589844

>  <SCORE.INTRA.VDW.0>
0.298713

>  <SCORE.INTRA.norm>
0.00233358

>  <SCORE.RESTR>
0

>  <SCORE.RESTR.CAVITY>
0

>  <SCORE.RESTR.norm>
0

>  <SCORE.SYSTEM>
-0.00477481

>  <SCORE.SYSTEM.CONST>
0

>  <SCORE.SYSTEM.DIHEDRAL>
1.83014

>  <SCORE.SYSTEM.VDW>
-0.919847

>  <SCORE.SYSTEM.norm>
-0.000227372

>  <SCORE.heavy>
21

>  <SCORE.norm>
-0.636487

$$$$
Wogonin.pdb
  RxDock  02242112183D
librxdock.so/0.1.0
 23 25  0  0  0  0  0  0  0  0999 V2000
  -49.9128    0.1392   15.0171 O   0  0  0  0  0  0
  -50.4500    0.9033   17.5619 O   0  0  0  0  0  0
  -50.6797   -4.4694   16.3075 O   0  0  0  0  0  0
  -51.0979   -0.9746   19.4862 O   0  0  0  0  0  0
  -50.0266   -3.7672   13.8655 O   0  0  0  0  0  0
  -50.2837   -2.1885   15.6048 C   0  0  0  0  0  0
  -50.2279   -0.8348   15.9313 C   0  0  0  0  0  0
  -49.6300   -0.2445   13.7150 C   0  0  0  0  0  0
  -50.5019   -0.4192   17.2346 C   0  0  0  0  0  0
  -49.9939   -2.5976   14.2226 C   0  0  0  0  0  0
  -50.6114   -3.1366   16.5764 C   0  0  0  0  0  0
  -49.6573   -1.5128   13.2784 C   0  0  0  0  0  0
  -49.3091    0.8816   12.8143 C   0  0  0  0  0  0
  -50.8292   -1.3632   18.2092 C   0  0  0  0  0  0
  -50.8840   -2.7190   17.8803 C   0  0  0  0  0  0
  -50.1387    2.0044   12.7711 C   0  0  0  0  0  0
  -48.1736    0.8291   12.0021 C   0  0  0  0  0  0
  -49.8362    3.0678   11.9218 C   0  0  0  0  0  0
  -47.8702    1.8931   11.1521 C   0  0  0  0  0  0
  -48.7015    3.0121   11.1122 C   0  0  0  0  0  0
  -49.3460    1.3301   18.3575 C   0  0  0  0  0  0
  -50.3105   -4.6595   15.4322 H   0  0  0  0  0  0
  -51.2917   -1.7622   20.0238 H   0  0  0  0  0  0
  1  7  1  0  0  0
  1  8  1  0  0  0
  2  9  1  0  0  0
  2 21  1  0  0  0
  3 11  1  0  0  0
  3 22  1  0  0  0
  4 14  1  0  0  0
  4 23  1  0  0  0
  5 10  2  0  0  0
  6  7  2  0  0  0
  6 10  1  0  0  0
  6 11  1  0  0  0
  7  9  1  0  0  0
  8 12  2  0  0  0
  8 13  1  0  0  0
  9 14  2  0  0  0
 10 12  1  0  0  0
 11 15  2  0  0  0
 13 16  2  0  0  0
 13 17  1  0  0  0
 14 15  1  0  0  0
 16 18  1  0  0  0
 17 19  2  0  0  0
 18 20  2  0  0  0
 19 20  1  0  0  0
M  END
>  <CHROM.0>
58.96192132,-60.72038584,-65.55550686

>  <CHROM.1>
-107.32053235,10.94967172,-179.21246949,-48.97588181,-49.93465250,-0.52949286
15.10477927,0.09246433,1.32826684,0.50572927

>  <Name>
Wogonin.pdb

>  <RI>
-5.05765e+08

>  <Rbt.Current_Directory>
/root/miniconda3/envs/rdock/share/rxdock-2013.1.1_148c5bd1-0/data/ligands/prepped_ligands/Wogonin

>  <Rbt.Executable>
rbdock/0.1.0

>  <Rbt.Library>
librxdock.so/0.1.0

>  <Rbt.Parameter_File>
/root/miniconda3/envs/rdock/share/rxdock-2013.1.1_148c5bd1-0/data/scripts/dock.prm

>  <Rbt.Receptor>
def.prm

>  <SCORE>
-14.584

>  <SCORE.INTER>
-14.0676

>  <SCORE.INTER.CONST>
1

>  <SCORE.INTER.POLAR>
-0.709299

>  <SCORE.INTER.REPUL>
0

>  <SCORE.INTER.ROT>
2

>  <SCORE.INTER.VDW>
-19.056

>  <SCORE.INTER.norm>
-0.669887

>  <SCORE.INTRA>
0.519835

>  <SCORE.INTRA.DIHEDRAL>
1.2846

>  <SCORE.INTRA.DIHEDRAL.0>
6.03438

>  <SCORE.INTRA.POLAR>
0

>  <SCORE.INTRA.POLAR.0>
0

>  <SCORE.INTRA.REPUL>
0

>  <SCORE.INTRA.REPUL.0>
0

>  <SCORE.INTRA.VDW>
-0.122467

>  <SCORE.INTRA.VDW.0>
0.298713

>  <SCORE.INTRA.norm>
0.024754

>  <SCORE.RESTR>
0

>  <SCORE.RESTR.CAVITY>
0

>  <SCORE.RESTR.norm>
0

>  <SCORE.SYSTEM>
-1.03623

>  <SCORE.SYSTEM.CONST>
0

>  <SCORE.SYSTEM.DIHEDRAL>
0.086267

>  <SCORE.SYSTEM.VDW>
-1.07936

>  <SCORE.SYSTEM.norm>
-0.0493442

>  <SCORE.heavy>
21

>  <SCORE.norm>
-0.694477

$$$$
Wogonin.pdb
  RxDock  02242112183D
librxdock.so/0.1.0
 23 25  0  0  0  0  0  0  0  0999 V2000
  -50.3452   -4.2511   15.7206 O   0  0  0  0  0  0
  -48.0394   -4.8498   17.0140 O   0  0  0  0  0  0
  -48.0468   -0.6558   13.4219 O   0  0  0  0  0  0
  -45.7414   -3.3853   16.5407 O   0  0  0  0  0  0
  -50.5819   -1.2039   13.0265 O   0  0  0  0  0  0
  -49.2472   -2.4345   14.5391 C   0  0  0  0  0  0
  -49.2354   -3.4910   15.4479 C   0  0  0  0  0  0
  -51.5302   -3.9465   15.0681 C   0  0  0  0  0  0
  -48.0593   -3.8173   16.1238 C   0  0  0  0  0  0
  -50.4998   -2.1154   13.8384 C   0  0  0  0  0  0
  -48.0867   -1.6955   14.2998 C   0  0  0  0  0  0
  -51.6655   -2.9600   14.1689 C   0  0  0  0  0  0
  -52.6584   -4.8285   15.4310 C   0  0  0  0  0  0
  -46.8971   -3.0811   15.8883 C   0  0  0  0  0  0
  -46.9112   -2.0227   14.9780 C   0  0  0  0  0  0
  -52.4532   -5.9164   16.2826 C   0  0  0  0  0  0
  -53.9362   -4.5778   14.9249 C   0  0  0  0  0  0
  -53.5175   -6.7487   16.6260 C   0  0  0  0  0  0
  -55.0018   -5.4104   15.2685 C   0  0  0  0  0  0
  -54.7922   -6.4955   16.1189 C   0  0  0  0  0  0
  -48.8987   -4.7435   18.1473 C   0  0  0  0  0  0
  -48.5522   -0.8656   12.6225 H   0  0  0  0  0  0
  -45.9216   -4.0781   17.2000 H   0  0  0  0  0  0
  1  7  1  0  0  0
  1  8  1  0  0  0
  2  9  1  0  0  0
  2 21  1  0  0  0
  3 11  1  0  0  0
  3 22  1  0  0  0
  4 14  1  0  0  0
  4 23  1  0  0  0
  5 10  2  0  0  0
  6  7  2  0  0  0
  6 10  1  0  0  0
  6 11  1  0  0  0
  7  9  1  0  0  0
  8 12  2  0  0  0
  8 13  1  0  0  0
  9 14  2  0  0  0
 10 12  1  0  0  0
 11 15  2  0  0  0
 13 16  2  0  0  0
 13 17  1  0  0  0
 14 15  1  0  0  0
 16 18  1  0  0  0
 17 19  2  0  0  0
 18 20  2  0  0  0
 19 20  1  0  0  0
M  END
>  <CHROM.0>
-173.77046573,65.41367005,-57.64910756

>  <CHROM.1>
-61.25614537,-40.88639408,-5.86410762,-4.60791073,-50.19146491,-3.71260995
15.38768952,-2.75856185,-0.27499500,-0.75777375

>  <Name>
Wogonin.pdb

>  <RI>
-5.05765e+08

>  <Rbt.Current_Directory>
/root/miniconda3/envs/rdock/share/rxdock-2013.1.1_148c5bd1-0/data/ligands/prepped_ligands/Wogonin

>  <Rbt.Executable>
rbdock/0.1.0

>  <Rbt.Library>
librxdock.so/0.1.0

>  <Rbt.Parameter_File>
/root/miniconda3/envs/rdock/share/rxdock-2013.1.1_148c5bd1-0/data/scripts/dock.prm

>  <Rbt.Receptor>
def.prm

>  <SCORE>
-12.6932

>  <SCORE.INTER>
-11.8965

>  <SCORE.INTER.CONST>
1

>  <SCORE.INTER.POLAR>
-0.610712

>  <SCORE.INTER.REPUL>
0

>  <SCORE.INTER.ROT>
2

>  <SCORE.INTER.VDW>
-17.2201

>  <SCORE.INTER.norm>
-0.566502

>  <SCORE.INTRA>
0.134234

>  <SCORE.INTRA.DIHEDRAL>
-0.194224

>  <SCORE.INTRA.DIHEDRAL.0>
6.03438

>  <SCORE.INTRA.POLAR>
-0.100569

>  <SCORE.INTRA.POLAR.0>
0

>  <SCORE.INTRA.REPUL>
0

>  <SCORE.INTRA.REPUL.0>
0

>  <SCORE.INTRA.VDW>
0.57328

>  <SCORE.INTRA.VDW.0>
0.298713

>  <SCORE.INTRA.norm>
0.00639211

>  <SCORE.RESTR>
0

>  <SCORE.RESTR.CAVITY>
0

>  <SCORE.RESTR.norm>
0

>  <SCORE.SYSTEM>
-0.930935

>  <SCORE.SYSTEM.CONST>
0

>  <SCORE.SYSTEM.DIHEDRAL>
0.245948

>  <SCORE.SYSTEM.POLAR>
-0.00636823

>  <SCORE.SYSTEM.VDW>
-1.03226

>  <SCORE.SYSTEM.norm>
-0.0443302

>  <SCORE.heavy>
21

>  <SCORE.norm>
-0.60444

$$$$
Wogonin.pdb
  RxDock  02242112183D
librxdock.so/0.1.0
 23 25  0  0  0  0  0  0  0  0999 V2000
  -51.5826   -3.9689   16.7013 O   0  0  0  0  0  0
  -49.9297   -3.8792   18.8480 O   0  0  0  0  0  0
  -49.3826   -0.0326   14.9240 O   0  0  0  0  0  0
  -48.0116   -1.8983   19.0631 O   0  0  0  0  0  0
  -51.3563   -1.2385   13.6858 O   0  0  0  0  0  0
  -50.5191   -1.9975   15.7609 C   0  0  0  0  0  0
  -50.6497   -2.9637   16.7568 C   0  0  0  0  0  0
  -52.4363   -4.0173   15.6097 C   0  0  0  0  0  0
  -49.8088   -2.9372   17.8697 C   0  0  0  0  0  0
  -51.4164   -2.0520   14.5975 C   0  0  0  0  0  0
  -49.5502   -0.9977   15.8695 C   0  0  0  0  0  0
  -52.4042   -3.1500   14.5866 C   0  0  0  0  0  0
  -53.3958   -5.1399   15.6482 C   0  0  0  0  0  0
  -48.8393   -1.9395   17.9828 C   0  0  0  0  0  0
  -48.7105   -0.9721   16.9844 C   0  0  0  0  0  0
  -54.6399   -5.0216   15.0244 C   0  0  0  0  0  0
  -53.0629   -6.3254   16.3080 C   0  0  0  0  0  0
  -55.5458   -6.0807   15.0598 C   0  0  0  0  0  0
  -53.9690   -7.3859   16.3435 C   0  0  0  0  0  0
  -55.2100   -7.2632   15.7194 C   0  0  0  0  0  0
  -49.4607   -5.1913   18.5440 C   0  0  0  0  0  0
  -50.1305   -0.0257   14.3083 H   0  0  0  0  0  0
  -48.4066   -2.4167   19.7859 H   0  0  0  0  0  0
  1  7  1  0  0  0
  1  8  1  0  0  0
  2  9  1  0  0  0
  2 21  1  0  0  0
  3 11  1  0  0  0
  3 22  1  0  0  0
  4 14  1  0  0  0
  4 23  1  0  0  0
  5 10  2  0  0  0
  6  7  2  0  0  0
  6 10  1  0  0  0
  6 11  1  0  0  0
  7  9  1  0  0  0
  8 12  2  0  0  0
  8 13  1  0  0  0
  9 14  2  0  0  0
 10 12  1  0  0  0
 11 15  2  0  0  0
 13 16  2  0  0  0
 13 17  1  0  0  0
 14 15  1  0  0  0
 16 18  1  0  0  0
 17 19  2  0  0  0
 18 20  2  0  0  0
 19 20  1  0  0  0
M  END
>  <CHROM.0>
-63.06874461,-65.52409704,-178.51072834

>  <CHROM.1>
73.47743454,12.69054540,-19.29213879,151.29272786,-51.33878254,-3.49259314
16.32145491,-2.80326828,-0.67703269,-0.75571480

>  <Name>
Wogonin.pdb

>  <RI>
-5.05765e+08

>  <Rbt.Current_Directory>
/root/miniconda3/envs/rdock/share/rxdock-2013.1.1_148c5bd1-0/data/ligands/prepped_ligands/Wogonin

>  <Rbt.Executable>
rbdock/0.1.0

>  <Rbt.Library>
librxdock.so/0.1.0

>  <Rbt.Parameter_File>
/root/miniconda3/envs/rdock/share/rxdock-2013.1.1_148c5bd1-0/data/scripts/dock.prm

>  <Rbt.Receptor>
def.prm

>  <SCORE>
-13.6171

>  <SCORE.INTER>
-12.255

>  <SCORE.INTER.CONST>
1

>  <SCORE.INTER.POLAR>
-0.984049

>  <SCORE.INTER.REPUL>
0

>  <SCORE.INTER.ROT>
2

>  <SCORE.INTER.VDW>
-16.3092

>  <SCORE.INTER.norm>
-0.583572

>  <SCORE.INTRA>
-0.301939

>  <SCORE.INTRA.DIHEDRAL>
0.272959

>  <SCORE.INTRA.DIHEDRAL.0>
6.03438

>  <SCORE.INTRA.POLAR>
-0.0507939

>  <SCORE.INTRA.POLAR.0>
0

>  <SCORE.INTRA.REPUL>
0

>  <SCORE.INTRA.REPUL.0>
0

>  <SCORE.INTRA.VDW>
-0.265719

>  <SCORE.INTRA.VDW.0>
0.298713

>  <SCORE.INTRA.norm>
-0.0143781

>  <SCORE.RESTR>
0

>  <SCORE.RESTR.CAVITY>
0

>  <SCORE.RESTR.norm>
0

>  <SCORE.SYSTEM>
-1.06014

>  <SCORE.SYSTEM.CONST>
0

>  <SCORE.SYSTEM.DIHEDRAL>
0.179442

>  <SCORE.SYSTEM.POLAR>
-0.00551993

>  <SCORE.SYSTEM.VDW>
-1.13109

>  <SCORE.SYSTEM.norm>
-0.0504828

>  <SCORE.heavy>
21

>  <SCORE.norm>
-0.648433

$$$$
Wogonin.pdb
  RxDock  02242112183D
librxdock.so/0.1.0
 23 25  0  0  0  0  0  0  0  0999 V2000
  -47.7449   -0.8000   14.3821 O   0  0  0  0  0  0
  -45.5684   -0.9131   15.9939 O   0  0  0  0  0  0
  -49.1493   -5.1157   16.0837 O   0  0  0  0  0  0
  -45.1547   -3.0921   17.6461 O   0  0  0  0  0  0
  -50.5191   -3.7823   14.2868 O   0  0  0  0  0  0
  -48.4991   -2.9608   15.1967 C   0  0  0  0  0  0
  -47.5893   -1.9052   15.1808 C   0  0  0  0  0  0
  -48.8523   -0.7381   13.5497 C   0  0  0  0  0  0
  -46.4627   -1.9421   16.0031 C   0  0  0  0  0  0
  -49.6792   -2.8936   14.3224 C   0  0  0  0  0  0
  -48.2903   -4.0608   16.0314 C   0  0  0  0  0  0
  -49.7992   -1.6859   13.4805 C   0  0  0  0  0  0
  -48.9245    0.4945   12.7385 C   0  0  0  0  0  0
  -46.2497   -3.0397   16.8386 C   0  0  0  0  0  0
  -47.1620   -4.0965   16.8526 C   0  0  0  0  0  0
  -50.0486    1.3200   12.8144 C   0  0  0  0  0  0
  -47.8681    0.8406   11.8923 C   0  0  0  0  0  0
  -50.1172    2.4835   12.0497 C   0  0  0  0  0  0
  -47.9361    2.0052   11.1269 C   0  0  0  0  0  0
  -49.0605    2.8263   11.2058 C   0  0  0  0  0  0
  -45.8768    0.2194   16.8039 C   0  0  0  0  0  0
  -49.8102   -5.0519   15.3783 H   0  0  0  0  0  0
  -44.4733   -3.6424   17.2220 H   0  0  0  0  0  0
  1  7  1  0  0  0
  1  8  1  0  0  0
  2  9  1  0  0  0
  2 21  1  0  0  0
  3 11  1  0  0  0
  3 22  1  0  0  0
  4 14  1  0  0  0
  4 23  1  0  0  0
  5 10  2  0  0  0
  6  7  2  0  0  0
  6 10  1  0  0  0
  6 11  1  0  0  0
  7  9  1  0  0  0
  8 12  2  0  0  0
  8 13  1  0  0  0
  9 14  2  0  0  0
 10 12  1  0  0  0
 11 15  2  0  0  0
 13 16  2  0  0  0
 13 17  1  0  0  0
 14 15  1  0  0  0
 16 18  1  0  0  0
 17 19  2  0  0  0
 18 20  2  0  0  0
 19 20  1  0  0  0
M  END
>  <CHROM.0>
-173.16065779,177.44499203,178.85872662

>  <CHROM.1>
83.25749423,9.17253143,-98.81326500,-123.18601309,-48.07424488,-1.34157154
14.57628941,-1.90028970,0.57097107,2.59473983

>  <Name>
Wogonin.pdb

>  <RI>
-5.05765e+08

>  <Rbt.Current_Directory>
/root/miniconda3/envs/rdock/share/rxdock-2013.1.1_148c5bd1-0/data/ligands/prepped_ligands/Wogonin

>  <Rbt.Executable>
rbdock/0.1.0

>  <Rbt.Library>
librxdock.so/0.1.0

>  <Rbt.Parameter_File>
/root/miniconda3/envs/rdock/share/rxdock-2013.1.1_148c5bd1-0/data/scripts/dock.prm

>  <Rbt.Receptor>
def.prm

>  <SCORE>
-16.1078

>  <SCORE.INTER>
-17.4168

>  <SCORE.INTER.CONST>
1

>  <SCORE.INTER.POLAR>
-0.873273

>  <SCORE.INTER.REPUL>
0

>  <SCORE.INTER.ROT>
2

>  <SCORE.INTER.VDW>
-21.8477

>  <SCORE.INTER.norm>
-0.829373

>  <SCORE.INTRA>
2.32456

>  <SCORE.INTRA.DIHEDRAL>
6.83075

>  <SCORE.INTRA.DIHEDRAL.0>
6.03438

>  <SCORE.INTRA.POLAR>
0

>  <SCORE.INTRA.POLAR.0>
0

>  <SCORE.INTRA.REPUL>
0

>  <SCORE.INTRA.REPUL.0>
0

>  <SCORE.INTRA.VDW>
-1.09082

>  <SCORE.INTRA.VDW.0>
0.298713

>  <SCORE.INTRA.norm>
0.110693

>  <SCORE.RESTR>
0

>  <SCORE.RESTR.CAVITY>
0

>  <SCORE.RESTR.norm>
0

>  <SCORE.SYSTEM>
-1.01549

>  <SCORE.SYSTEM.CONST>
0

>  <SCORE.SYSTEM.DIHEDRAL>
0.145746

>  <SCORE.SYSTEM.VDW>
-1.08836

>  <SCORE.SYSTEM.norm>
-0.0483567

>  <SCORE.heavy>
21

>  <SCORE.norm>
-0.767037

$$$$
Wogonin.pdb
  RxDock  02242112183D
librxdock.so/0.1.0
 23 25  0  0  0  0  0  0  0  0999 V2000
  -50.2842   -0.0864   15.1252 O   0  0  0  0  0  0
  -51.0021    0.8098   17.5807 O   0  0  0  0  0  0
  -51.5107   -4.5767   16.4764 O   0  0  0  0  0  0
  -51.9676   -0.9431   19.4898 O   0  0  0  0  0  0
  -50.5784   -4.0157   14.0890 O   0  0  0  0  0  0
  -50.8813   -2.3580   15.7455 C   0  0  0  0  0  0
  -50.7562   -1.0003   16.0339 C   0  0  0  0  0  0
  -49.9084   -0.5383   13.8693 C   0  0  0  0  0  0
  -51.1209   -0.5171   17.2909 C   0  0  0  0  0  0
  -50.4928   -2.8387   14.4114 C   0  0  0  0  0  0
  -51.3693   -3.2429   16.7093 C   0  0  0  0  0  0
  -49.9884   -1.8171   13.4715 C   0  0  0  0  0  0
  -49.4206    0.5272   12.9698 C   0  0  0  0  0  0
  -51.6086   -1.3979   18.2576 C   0  0  0  0  0  0
  -51.7326   -2.7578   17.9669 C   0  0  0  0  0  0
  -48.1700    0.4119   12.3585 C   0  0  0  0  0  0
  -50.2084    1.6548   12.7255 C   0  0  0  0  0  0
  -47.7092    1.4167   11.5091 C   0  0  0  0  0  0
  -49.7479    2.6606   11.8752 C   0  0  0  0  0  0
  -48.4986    2.5413   11.2673 C   0  0  0  0  0  0
  -49.8192    1.2193   18.2641 C   0  0  0  0  0  0
  -51.1838   -4.8046   15.5934 H   0  0  0  0  0  0
  -52.4659   -1.6391   19.9526 H   0  0  0  0  0  0
  1  7  1  0  0  0
  1  8  1  0  0  0
  2  9  1  0  0  0
  2 21  1  0  0  0
  3 11  1  0  0  0
  3 22  1  0  0  0
  4 14  1  0  0  0
  4 23  1  0  0  0
  5 10  2  0  0  0
  6  7  2  0  0  0
  6 10  1  0  0  0
  6 11  1  0  0  0
  7  9  1  0  0  0
  8 12  2  0  0  0
  8 13  1  0  0  0
  9 14  2  0  0  0
 10 12  1  0  0  0
 11 15  2  0  0  0
 13 16  2  0  0  0
 13 17  1  0  0  0
 14 15  1  0  0  0
 16 18  1  0  0  0
 17 19  2  0  0  0
 18 20  2  0  0  0
 19 20  1  0  0  0
M  END
>  <CHROM.0>
-62.31282446,65.29990996,-175.62935018

>  <CHROM.1>
-96.34348014,3.17641135,167.17588073,125.77564268,-50.35828927,-0.74631736
15.21934496,0.03607560,1.20731676,0.53511751

>  <Name>
Wogonin.pdb

>  <RI>
-5.05765e+08

>  <Rbt.Current_Directory>
/root/miniconda3/envs/rdock/share/rxdock-2013.1.1_148c5bd1-0/data/ligands/prepped_ligands/Wogonin

>  <Rbt.Executable>
rbdock/0.1.0

>  <Rbt.Library>
librxdock.so/0.1.0

>  <Rbt.Parameter_File>
/root/miniconda3/envs/rdock/share/rxdock-2013.1.1_148c5bd1-0/data/scripts/dock.prm

>  <Rbt.Receptor>
def.prm

>  <SCORE>
-14.8428

>  <SCORE.INTER>
-14.4442

>  <SCORE.INTER.CONST>
1

>  <SCORE.INTER.POLAR>
-0.745918

>  <SCORE.INTER.REPUL>
0.0169186

>  <SCORE.INTER.ROT>
2

>  <SCORE.INTER.VDW>
-19.3927

>  <SCORE.INTER.norm>
-0.687821

>  <SCORE.INTRA>
0.603682

>  <SCORE.INTRA.DIHEDRAL>
2.15594

>  <SCORE.INTRA.DIHEDRAL.0>
6.03438

>  <SCORE.INTRA.POLAR>
0

>  <SCORE.INTRA.POLAR.0>
0

>  <SCORE.INTRA.REPUL>
0

>  <SCORE.INTRA.REPUL.0>
0

>  <SCORE.INTRA.VDW>
-0.474288

>  <SCORE.INTRA.VDW.0>
0.298713

>  <SCORE.INTRA.norm>
0.0287468

>  <SCORE.RESTR>
0

>  <SCORE.RESTR.CAVITY>
0

>  <SCORE.RESTR.norm>
0

>  <SCORE.SYSTEM>
-1.00226

>  <SCORE.SYSTEM.CONST>
0

>  <SCORE.SYSTEM.DIHEDRAL>
0.196207

>  <SCORE.SYSTEM.POLAR>
-0.0111685

>  <SCORE.SYSTEM.VDW>
-1.06239

>  <SCORE.SYSTEM.norm>
-0.0477268

>  <SCORE.heavy>
21

>  <SCORE.norm>
-0.706801

$$$$
Wogonin.pdb
  RxDock  02242112183D
librxdock.so/0.1.0
 23 25  0  0  0  0  0  0  0  0999 V2000
  -48.1554   -3.2151   15.6206 O   0  0  0  0  0  0
  -49.4354   -5.3941   16.6013 O   0  0  0  0  0  0
  -52.2642   -1.8668   13.4314 O   0  0  0  0  0  0
  -52.1031   -5.8366   16.0213 O   0  0  0  0  0  0
  -50.0440   -0.4788   13.2658 O   0  0  0  0  0  0
  -50.1847   -2.4890   14.4997 C   0  0  0  0  0  0
  -49.4791   -3.3853   15.3004 C   0  0  0  0  0  0
  -47.4920   -2.1065   15.1170 C   0  0  0  0  0  0
  -50.1184   -4.5128   15.8167 C   0  0  0  0  0  0
  -49.4865   -1.3075   13.9723 C   0  0  0  0  0  0
  -51.5318   -2.7123   14.2074 C   0  0  0  0  0  0
  -48.0632   -1.1715   14.3427 C   0  0  0  0  0  0
  -46.0754   -2.0180   15.5267 C   0  0  0  0  0  0
  -51.4646   -4.7404   15.5268 C   0  0  0  0  0  0
  -52.1696   -3.8416   14.7239 C   0  0  0  0  0  0
  -45.6730   -2.5060   16.7720 C   0  0  0  0  0  0
  -45.1314   -1.4467   14.6699 C   0  0  0  0  0  0
  -44.3363   -2.4235   17.1591 C   0  0  0  0  0  0
  -43.7933   -1.3641   15.0566 C   0  0  0  0  0  0
  -43.3962   -1.8525   16.3010 C   0  0  0  0  0  0
  -49.1946   -5.0055   17.9523 C   0  0  0  0  0  0
  -53.1961   -2.1314   13.4253 H   0  0  0  0  0  0
  -52.9726   -5.9184   15.5919 H   0  0  0  0  0  0
  1  7  1  0  0  0
  1  8  1  0  0  0
  2  9  1  0  0  0
  2 21  1  0  0  0
  3 11  1  0  0  0
  3 22  1  0  0  0
  4 14  1  0  0  0
  4 23  1  0  0  0
  5 10  2  0  0  0
  6  7  2  0  0  0
  6 10  1  0  0  0
  6 11  1  0  0  0
  7  9  1  0  0  0
  8 12  2  0  0  0
  8 13  1  0  0  0
  9 14  2  0  0  0
 10 12  1  0  0  0
 11 15  2  0  0  0
 13 16  2  0  0  0
 13 17  1  0  0  0
 14 15  1  0  0  0
 16 18  1  0  0  0
 17 19  2  0  0  0
 18 20  2  0  0  0
 19 20  1  0  0  0
M  END
>  <CHROM.0>
-61.32098288,-64.49395230,-61.46343197

>  <CHROM.1>
76.73563821,-173.52253151,-169.79669403,-32.09893539,-48.65933313,-2.89055519
15.33226539,-0.13983039,0.27364652,2.45931119

>  <Name>
Wogonin.pdb

>  <RI>
-5.05765e+08

>  <Rbt.Current_Directory>
/root/miniconda3/envs/rdock/share/rxdock-2013.1.1_148c5bd1-0/data/ligands/prepped_ligands/Wogonin

>  <Rbt.Executable>
rbdock/0.1.0

>  <Rbt.Library>
librxdock.so/0.1.0

>  <Rbt.Parameter_File>
/root/miniconda3/envs/rdock/share/rxdock-2013.1.1_148c5bd1-0/data/scripts/dock.prm

>  <Rbt.Receptor>
def.prm

>  <SCORE>
-17.4217

>  <SCORE.INTER>
-16.7955

>  <SCORE.INTER.CONST>
1

>  <SCORE.INTER.POLAR>
-1.99854

>  <SCORE.INTER.REPUL>
0.0022369

>  <SCORE.INTER.ROT>
2

>  <SCORE.INTER.VDW>
-17.4116

>  <SCORE.INTER.norm>
-0.799785

>  <SCORE.INTRA>
0.270371

>  <SCORE.INTRA.DIHEDRAL>
0.115785

>  <SCORE.INTRA.DIHEDRAL.0>
6.03438

>  <SCORE.INTRA.POLAR>
0

>  <SCORE.INTRA.POLAR.0>
0

>  <SCORE.INTRA.REPUL>
0

>  <SCORE.INTRA.REPUL.0>
0

>  <SCORE.INTRA.VDW>
0.212479

>  <SCORE.INTRA.VDW.0>
0.298713

>  <SCORE.INTRA.norm>
0.0128748

>  <SCORE.RESTR>
0.164231

>  <SCORE.RESTR.CAVITY>
0.164231

>  <SCORE.RESTR.norm>
0.0078205

>  <SCORE.SYSTEM>
-1.0608

>  <SCORE.SYSTEM.CONST>
0

>  <SCORE.SYSTEM.DIHEDRAL>
0.111156

>  <SCORE.SYSTEM.VDW>
-1.11638

>  <SCORE.SYSTEM.norm>
-0.0505143

>  <SCORE.heavy>
21

>  <SCORE.norm>
-0.829604

$$$$
Wogonin.pdb
  RxDock  02242112183D
librxdock.so/0.1.0
 23 25  0  0  0  0  0  0  0  0999 V2000
  -48.1370   -3.2330   15.6178 O   0  0  0  0  0  0
  -49.4308   -5.4141   16.5755 O   0  0  0  0  0  0
  -52.2472   -1.8155   13.4755 O   0  0  0  0  0  0
  -52.1063   -5.8236   16.0069 O   0  0  0  0  0  0
  -50.0153   -0.4458   13.3151 O   0  0  0  0  0  0
  -50.1666   -2.4722   14.5210 C   0  0  0  0  0  0
  -49.4643   -3.3865   15.3040 C   0  0  0  0  0  0
  -47.4666   -2.1234   15.1258 C   0  0  0  0  0  0
  -50.1107   -4.5153   15.8082 C   0  0  0  0  0  0
  -49.4610   -1.2896   14.0059 C   0  0  0  0  0  0
  -51.5177   -2.6788   14.2344 C   0  0  0  0  0  0
  -48.0341   -1.1722   14.3688 C   0  0  0  0  0  0
  -46.0466   -2.0540   15.5274 C   0  0  0  0  0  0
  -51.4608   -4.7263   15.5239 C   0  0  0  0  0  0
  -52.1625   -3.8095   14.7388 C   0  0  0  0  0  0
  -45.6493   -2.5145   16.7847 C   0  0  0  0  0  0
  -45.0943   -1.5282   14.6508 C   0  0  0  0  0  0
  -44.3094   -2.4499   17.1641 C   0  0  0  0  0  0
  -43.7530   -1.4635   15.0299 C   0  0  0  0  0  0
  -43.3610   -1.9244   16.2863 C   0  0  0  0  0  0
  -49.0070   -4.9745   17.8644 C   0  0  0  0  0  0
  -53.1703   -2.1047   13.4232 H   0  0  0  0  0  0
  -51.6452   -6.6239   15.7005 H   0  0  0  0  0  0
  1  7  1  0  0  0
  1  8  1  0  0  0
  2  9  1  0  0  0
  2 21  1  0  0  0
  3 11  1  0  0  0
  3 22  1  0  0  0
  4 14  1  0  0  0
  4 23  1  0  0  0
  5 10  2  0  0  0
  6  7  2  0  0  0
  6 10  1  0  0  0
  6 11  1  0  0  0
  7  9  1  0  0  0
  8 12  2  0  0  0
  8 13  1  0  0  0
  9 14  2  0  0  0
 10 12  1  0  0  0
 11 15  2  0  0  0
 13 16  2  0  0  0
 13 17  1  0  0  0
 14 15  1  0  0  0
 16 18  1  0  0  0
 17 19  2  0  0  0
 18 20  2  0  0  0
 19 20  1  0  0  0
M  END
>  <CHROM.0>
-57.55943928,-65.39686732,178.22947140

>  <CHROM.1>
67.84989406,-177.31074374,-57.63406439,-34.67990059,-48.62595078,-2.89863800
15.33427438,-0.13199614,0.26409815,2.47754736

>  <Name>
Wogonin.pdb

>  <RI>
-5.05765e+08

>  <Rbt.Current_Directory>
/root/miniconda3/envs/rdock/share/rxdock-2013.1.1_148c5bd1-0/data/ligands/prepped_ligands/Wogonin

>  <Rbt.Executable>
rbdock/0.1.0

>  <Rbt.Library>
librxdock.so/0.1.0

>  <Rbt.Parameter_File>
/root/miniconda3/envs/rdock/share/rxdock-2013.1.1_148c5bd1-0/data/scripts/dock.prm

>  <Rbt.Receptor>
def.prm

>  <SCORE>
-19.2549

>  <SCORE.INTER>
-19.8361

>  <SCORE.INTER.CONST>
1

>  <SCORE.INTER.POLAR>
-2.77516

>  <SCORE.INTER.REPUL>
0.0034274

>  <SCORE.INTER.ROT>
2

>  <SCORE.INTER.VDW>
-17.8177

>  <SCORE.INTER.norm>
-0.944575

>  <SCORE.INTRA>
1.49423

>  <SCORE.INTRA.DIHEDRAL>
3.10884

>  <SCORE.INTRA.DIHEDRAL.0>
6.03438

>  <SCORE.INTRA.POLAR>
0

>  <SCORE.INTRA.POLAR.0>
0

>  <SCORE.INTRA.REPUL>
0

>  <SCORE.INTRA.REPUL.0>
0

>  <SCORE.INTRA.VDW>
-0.0601863

>  <SCORE.INTRA.VDW.0>
0.298713

>  <SCORE.INTRA.norm>
0.0711539

>  <SCORE.RESTR>
0.14721

>  <SCORE.RESTR.CAVITY>
0.14721

>  <SCORE.RESTR.norm>
0.00700999

>  <SCORE.SYSTEM>
-1.06026

>  <SCORE.SYSTEM.CONST>
0

>  <SCORE.SYSTEM.DIHEDRAL>
0.165027

>  <SCORE.SYSTEM.VDW>
-1.14278

>  <SCORE.SYSTEM.norm>
-0.0504887

>  <SCORE.heavy>
21

>  <SCORE.norm>
-0.9169

$$$$
Wogonin.pdb
  RxDock  02242112183D
librxdock.so/0.1.0
 23 25  0  0  0  0  0  0  0  0999 V2000
  -48.2251   -0.8156   14.2342 O   0  0  0  0  0  0
  -45.9606   -1.4440   15.5853 O   0  0  0  0  0  0
  -50.3933   -4.6792   16.1999 O   0  0  0  0  0  0
  -45.8781   -3.6622   17.2351 O   0  0  0  0  0  0
  -51.6143   -3.0559   14.5394 O   0  0  0  0  0  0
  -49.3643   -2.7379   15.1872 C   0  0  0  0  0  0
  -48.2401   -1.9278   15.0383 C   0  0  0  0  0  0
  -49.3775   -0.4916   13.5345 C   0  0  0  0  0  0
  -47.0644   -2.2320   15.7251 C   0  0  0  0  0  0
  -50.5907   -2.3914   14.4541 C   0  0  0  0  0  0
  -49.3226   -3.8576   16.0207 C   0  0  0  0  0  0
  -50.5223   -1.1881   13.6003 C   0  0  0  0  0  0
  -49.2535    0.7246   12.7050 C   0  0  0  0  0  0
  -47.0180   -3.3504   16.5589 C   0  0  0  0  0  0
  -48.1450   -4.1611   16.7062 C   0  0  0  0  0  0
  -48.1008    0.9427   11.9469 C   0  0  0  0  0  0
  -50.2891    1.6618   12.6742 C   0  0  0  0  0  0
  -47.9832    2.0898   11.1635 C   0  0  0  0  0  0
  -50.1721    2.8099   11.8901 C   0  0  0  0  0  0
  -49.0193    3.0236   11.1350 C   0  0  0  0  0  0
  -46.0293   -0.1306   16.1368 C   0  0  0  0  0  0
  -50.1398   -5.4621   16.7111 H   0  0  0  0  0  0
  -45.9874   -4.5320   17.6578 H   0  0  0  0  0  0
  1  7  1  0  0  0
  1  8  1  0  0  0
  2  9  1  0  0  0
  2 21  1  0  0  0
  3 11  1  0  0  0
  3 22  1  0  0  0
  4 14  1  0  0  0
  4 23  1  0  0  0
  5 10  2  0  0  0
  6  7  2  0  0  0
  6 10  1  0  0  0
  6 11  1  0  0  0
  7  9  1  0  0  0
  8 12  2  0  0  0
  8 13  1  0  0  0
  9 14  2  0  0  0
 10 12  1  0  0  0
 11 15  2  0  0  0
 13 16  2  0  0  0
 13 17  1  0  0  0
 14 15  1  0  0  0
 16 18  1  0  0  0
 17 19  2  0  0  0
 18 20  2  0  0  0
 19 20  1  0  0  0
M  END
>  <CHROM.0>
60.05190873,64.09416097,59.74471411

>  <CHROM.1>
68.60804975,172.20982116,-171.89659765,42.82321238,-48.65309004,-1.26102898
14.47262924,-1.74360181,0.33008296,2.51625718

>  <Name>
Wogonin.pdb

>  <RI>
-5.05765e+08

>  <Rbt.Current_Directory>
/root/miniconda3/envs/rdock/share/rxdock-2013.1.1_148c5bd1-0/data/ligands/prepped_ligands/Wogonin

>  <Rbt.Executable>
rbdock/0.1.0

>  <Rbt.Library>
librxdock.so/0.1.0

>  <Rbt.Parameter_File>
/root/miniconda3/envs/rdock/share/rxdock-2013.1.1_148c5bd1-0/data/scripts/dock.prm

>  <Rbt.Receptor>
def.prm

>  <SCORE>
-14.1783

>  <SCORE.INTER>
-13.7665

>  <SCORE.INTER.CONST>
1

>  <SCORE.INTER.POLAR>
-0.00498561

>  <SCORE.INTER.REPUL>
0.177788

>  <SCORE.INTER.ROT>
2

>  <SCORE.INTER.VDW>
-22.0385

>  <SCORE.INTER.norm>
-0.655549

>  <SCORE.INTRA>
0.589077

>  <SCORE.INTRA.DIHEDRAL>
0.485421

>  <SCORE.INTRA.DIHEDRAL.0>
6.03438

>  <SCORE.INTRA.POLAR>
0

>  <SCORE.INTRA.POLAR.0>
0

>  <SCORE.INTRA.REPUL>
0

>  <SCORE.INTRA.REPUL.0>
0

>  <SCORE.INTRA.VDW>
0.346366

>  <SCORE.INTRA.VDW.0>
0.298713

>  <SCORE.INTRA.norm>
0.0280513

>  <SCORE.RESTR>
0

>  <SCORE.RESTR.CAVITY>
0

>  <SCORE.RESTR.norm>
0

>  <SCORE.SYSTEM>
-1.00081

>  <SCORE.SYSTEM.CONST>
0

>  <SCORE.SYSTEM.DIHEDRAL>
0.0829399

>  <SCORE.SYSTEM.POLAR>
-0.000436335

>  <SCORE.SYSTEM.VDW>
-1.0408

>  <SCORE.SYSTEM.norm>
-0.0476576

>  <SCORE.heavy>
21

>  <SCORE.norm>
-0.675155

$$$$
Wogonin.pdb
  RxDock  02242112183D
librxdock.so/0.1.0
 23 25  0  0  0  0  0  0  0  0999 V2000
  -46.9737   -2.4854   17.8672 O   0  0  0  0  0  0
  -45.0542   -1.7074   19.6160 O   0  0  0  0  0  0
  -43.6813   -2.3921   14.3113 O   0  0  0  0  0  0
  -42.4634   -1.2659   18.7544 O   0  0  0  0  0  0
  -46.1876   -3.0561   13.9105 O   0  0  0  0  0  0
  -45.3685   -2.4559   16.0440 C   0  0  0  0  0  0
  -45.7053   -2.2799   17.3849 C   0  0  0  0  0  0
  -47.9626   -2.8768   16.9774 C   0  0  0  0  0  0
  -44.7329   -1.8811   18.3024 C   0  0  0  0  0  0
  -46.4127   -2.8802   15.1000 C   0  0  0  0  0  0
  -44.0602   -2.2334   15.6093 C   0  0  0  0  0  0
  -47.7609   -3.0848   15.6675 C   0  0  0  0  0  0
  -49.2869   -3.0744   17.6017 C   0  0  0  0  0  0
  -43.4240   -1.6570   17.8724 C   0  0  0  0  0  0
  -43.0888   -1.8332   16.5285 C   0  0  0  0  0  0
  -50.4494   -2.9402   16.8393 C   0  0  0  0  0  0
  -49.3825   -3.3974   18.9575 C   0  0  0  0  0  0
  -51.6994   -3.1272   17.4275 C   0  0  0  0  0  0
  -50.6333   -3.5849   19.5468 C   0  0  0  0  0  0
  -51.7913   -3.4498   18.7816 C   0  0  0  0  0  0
  -45.2495   -0.3670   20.0624 C   0  0  0  0  0  0
  -42.7337   -2.2178   14.2095 H   0  0  0  0  0  0
  -41.6222   -1.6946   18.5187 H   0  0  0  0  0  0
  1  7  1  0  0  0
  1  8  1  0  0  0
  2  9  1  0  0  0
  2 21  1  0  0  0
  3 11  1  0  0  0
  3 22  1  0  0  0
  4 14  1  0  0  0
  4 23  1  0  0  0
  5 10  2  0  0  0
  6  7  2  0  0  0
  6 10  1  0  0  0
  6 11  1  0  0  0
  7  9  1  0  0  0
  8 12  2  0  0  0
  8 13  1  0  0  0
  9 14  2  0  0  0
 10 12  1  0  0  0
 11 15  2  0  0  0
 13 16  2  0  0  0
 13 17  1  0  0  0
 14 15  1  0  0  0
 16 18  1  0  0  0
 17 19  2  0  0  0
 18 20  2  0  0  0
 19 20  1  0  0  0
M  END
>  <CHROM.0>
175.25493577,60.76915791,177.83921233

>  <CHROM.1>
-101.22689919,-178.34866770,142.82244609,154.43454580,-46.61597347,-2.44514005
17.29769572,-3.03698473,-0.23567427,-1.79512194

>  <Name>
Wogonin.pdb

>  <RI>
-5.05765e+08

>  <Rbt.Current_Directory>
/root/miniconda3/envs/rdock/share/rxdock-2013.1.1_148c5bd1-0/data/ligands/prepped_ligands/Wogonin

>  <Rbt.Executable>
rbdock/0.1.0

>  <Rbt.Library>
librxdock.so/0.1.0

>  <Rbt.Parameter_File>
/root/miniconda3/envs/rdock/share/rxdock-2013.1.1_148c5bd1-0/data/scripts/dock.prm

>  <Rbt.Receptor>
def.prm

>  <SCORE>
-11.7361

>  <SCORE.INTER>
-11.5748

>  <SCORE.INTER.CONST>
1

>  <SCORE.INTER.POLAR>
-1.45861

>  <SCORE.INTER.REPUL>
0.0725202

>  <SCORE.INTER.ROT>
2

>  <SCORE.INTER.VDW>
-14.3781

>  <SCORE.INTER.norm>
-0.551179

>  <SCORE.INTRA>
0.802131

>  <SCORE.INTRA.DIHEDRAL>
1.26565

>  <SCORE.INTRA.DIHEDRAL.0>
6.03438

>  <SCORE.INTRA.POLAR>
0

>  <SCORE.INTRA.POLAR.0>
0

>  <SCORE.INTRA.REPUL>
0

>  <SCORE.INTRA.REPUL.0>
0

>  <SCORE.INTRA.VDW>
0.169307

>  <SCORE.INTRA.VDW.0>
0.298713

>  <SCORE.INTRA.norm>
0.0381967

>  <SCORE.RESTR>
0

>  <SCORE.RESTR.CAVITY>
0

>  <SCORE.RESTR.norm>
0

>  <SCORE.SYSTEM>
-0.963503

>  <SCORE.SYSTEM.CONST>
0

>  <SCORE.SYSTEM.DIHEDRAL>
0.0751245

>  <SCORE.SYSTEM.VDW>
-1.00106

>  <SCORE.SYSTEM.norm>
-0.0458811

>  <SCORE.heavy>
21

>  <SCORE.norm>
-0.558863

$$$$
