Wogonin.pdb
  RxDock  02242110103D
librxdock.so/0.1.0
 23 25  0  0  0  0  0  0  0  0999 V2000
  -46.8887   -2.6295   16.2300 O   0  0  0  0  0  0
  -48.2022   -4.9872   16.4836 O   0  0  0  0  0  0
  -50.1926   -1.2123   12.9791 O   0  0  0  0  0  0
  -50.4910   -5.4861   15.0133 O   0  0  0  0  0  0
  -48.1775    0.3006   13.7096 O   0  0  0  0  0  0
  -48.5135   -1.8646   14.5940 C   0  0  0  0  0  0
  -48.0187   -2.8239   15.4757 C   0  0  0  0  0  0
  -46.2074   -1.4287   16.1007 C   0  0  0  0  0  0
  -48.6795   -4.0438   15.6227 C   0  0  0  0  0  0
  -47.7988   -0.5866   14.4619 C   0  0  0  0  0  0
  -49.6695   -2.1165   13.8521 C   0  0  0  0  0  0
  -46.5876   -0.4278   15.2922 C   0  0  0  0  0  0
  -45.0107   -1.3226   16.9603 C   0  0  0  0  0  0
  -49.8349   -4.3002   14.8829 C   0  0  0  0  0  0
  -50.3286   -3.3382   13.9997 C   0  0  0  0  0  0
  -44.3162   -2.4728   17.3417 C   0  0  0  0  0  0
  -44.5674   -0.0710   17.3948 C   0  0  0  0  0  0
  -43.1864   -2.3735   18.1524 C   0  0  0  0  0  0
  -43.4365    0.0290   18.2060 C   0  0  0  0  0  0
  -42.7463   -1.1222   18.5844 C   0  0  0  0  0  0
  -48.9745   -5.2442   17.6547 C   0  0  0  0  0  0
  -50.0121   -1.4778   12.0650 H   0  0  0  0  0  0
  -51.1800   -5.5450   14.3286 H   0  0  0  0  0  0
  1  7  1  0  0  0
  1  8  1  0  0  0
  2  9  1  0  0  0
  2 21  1  0  0  0
  3 11  1  0  0  0
  3 22  1  0  0  0
  4 14  1  0  0  0
  4 23  1  0  0  0
  5 10  2  0  0  0
  6  7  2  0  0  0
  6 10  1  0  0  0
  6 11  1  0  0  0
  7  9  1  0  0  0
  8 12  2  0  0  0
  8 13  1  0  0  0
  9 14  2  0  0  0
 10 12  1  0  0  0
 11 15  2  0  0  0
 13 16  2  0  0  0
 13 17  1  0  0  0
 14 15  1  0  0  0
 16 18  1  0  0  0
 17 19  2  0  0  0
 18 20  2  0  0  0
 19 20  1  0  0  0
M  END
>  <CHROM.0>
-57.66867308,-58.18288165,53.90957890

>  <CHROM.1>
110.65732225,105.22031693,-171.10067025,27.88788901,-47.32708892,-2.31990156
15.81698172,-0.05914859,0.58737773,2.60955117

>  <Name>
Wogonin.pdb

>  <RI>
-8.0202e+08

>  <Rbt.Current_Directory>
/root/miniconda3/envs/rdock/share/rxdock-2013.1.1_148c5bd1-0/data/ligands/prepped_ligands/Wogonin

>  <Rbt.Executable>
rbdock/0.1.0

>  <Rbt.Library>
librxdock.so/0.1.0

>  <Rbt.Parameter_File>
/root/miniconda3/envs/rdock/share/rxdock-2013.1.1_148c5bd1-0/data/scripts/dock.prm

>  <Rbt.Receptor>
def.prm

>  <SCORE>
-14.3171

>  <SCORE.INTER>
-15.3355

>  <SCORE.INTER.CONST>
1

>  <SCORE.INTER.POLAR>
-1.81038

>  <SCORE.INTER.REPUL>
0.0527463

>  <SCORE.INTER.ROT>
2

>  <SCORE.INTER.VDW>
-16.844

>  <SCORE.INTER.norm>
-0.730263

>  <SCORE.INTRA>
2.00587

>  <SCORE.INTRA.DIHEDRAL>
3.7719

>  <SCORE.INTRA.DIHEDRAL.0>
6.03438

>  <SCORE.INTRA.POLAR>
0

>  <SCORE.INTRA.POLAR.0>
0

>  <SCORE.INTRA.REPUL>
0

>  <SCORE.INTRA.REPUL.0>
0

>  <SCORE.INTRA.VDW>
0.119921

>  <SCORE.INTRA.VDW.0>
0.298713

>  <SCORE.INTRA.norm>
0.0955177

>  <SCORE.RESTR>
0

>  <SCORE.RESTR.CAVITY>
0

>  <SCORE.RESTR.norm>
0

>  <SCORE.SYSTEM>
-0.987445

>  <SCORE.SYSTEM.CONST>
0

>  <SCORE.SYSTEM.DIHEDRAL>
0.123786

>  <SCORE.SYSTEM.VDW>
-1.04934

>  <SCORE.SYSTEM.norm>
-0.0470212

>  <SCORE.heavy>
21

>  <SCORE.norm>
-0.681767

$$$$
Wogonin.pdb
  RxDock  02242110103D
librxdock.so/0.1.0
 23 25  0  0  0  0  0  0  0  0999 V2000
  -50.2238   -4.2148   16.4181 O   0  0  0  0  0  0
  -52.7354   -3.3455   15.8852 O   0  0  0  0  0  0
  -52.0447   -8.5462   17.6080 O   0  0  0  0  0  0
  -54.9036   -5.0333   16.2011 O   0  0  0  0  0  0
  -49.4778   -8.0109   17.6958 O   0  0  0  0  0  0
  -51.0780   -6.4056   17.0278 C   0  0  0  0  0  0
  -51.2626   -5.0945   16.5929 C   0  0  0  0  0  0
  -48.9368   -4.6500   16.6954 C   0  0  0  0  0  0
  -52.5465   -4.6266   16.3117 C   0  0  0  0  0  0
  -49.7135   -6.8730   17.3133 C   0  0  0  0  0  0
  -52.1728   -7.2579   17.1868 C   0  0  0  0  0  0
  -48.6314   -5.8879   17.1129 C   0  0  0  0  0  0
  -47.8958   -3.6264   16.4690 C   0  0  0  0  0  0
  -53.6438   -5.4746   16.4697 C   0  0  0  0  0  0
  -53.4568   -6.7875   16.9061 C   0  0  0  0  0  0
  -48.1456   -2.5473   15.6182 C   0  0  0  0  0  0
  -46.6569   -3.7326   17.1059 C   0  0  0  0  0  0
  -47.1641   -1.5807   15.4046 C   0  0  0  0  0  0
  -45.6742   -2.7653   16.8926 C   0  0  0  0  0  0
  -45.9281   -1.6897   16.0422 C   0  0  0  0  0  0
  -52.1867   -2.9989   14.6152 C   0  0  0  0  0  0
  -51.1163   -8.7539   17.7909 H   0  0  0  0  0  0
  -54.8795   -4.0708   16.0592 H   0  0  0  0  0  0
  1  7  1  0  0  0
  1  8  1  0  0  0
  2  9  1  0  0  0
  2 21  1  0  0  0
  3 11  1  0  0  0
  3 22  1  0  0  0
  4 14  1  0  0  0
  4 23  1  0  0  0
  5 10  2  0  0  0
  6  7  2  0  0  0
  6 10  1  0  0  0
  6 11  1  0  0  0
  7  9  1  0  0  0
  8 12  2  0  0  0
  8 13  1  0  0  0
  9 14  2  0  0  0
 10 12  1  0  0  0
 11 15  2  0  0  0
 13 16  2  0  0  0
 13 17  1  0  0  0
 14 15  1  0  0  0
 16 18  1  0  0  0
 17 19  2  0  0  0
 18 20  2  0  0  0
 19 20  1  0  0  0
M  END
>  <CHROM.0>
-68.08996833,66.89580202,159.02205617

>  <CHROM.1>
65.19991730,1.37396215,-9.59867394,-21.65628546,-50.31460855,-4.84877966
16.54514555,0.51004779,-0.14711055,-0.38456216

>  <Name>
Wogonin.pdb

>  <RI>
-8.0202e+08

>  <Rbt.Current_Directory>
/root/miniconda3/envs/rdock/share/rxdock-2013.1.1_148c5bd1-0/data/ligands/prepped_ligands/Wogonin

>  <Rbt.Executable>
rbdock/0.1.0

>  <Rbt.Library>
librxdock.so/0.1.0

>  <Rbt.Parameter_File>
/root/miniconda3/envs/rdock/share/rxdock-2013.1.1_148c5bd1-0/data/scripts/dock.prm

>  <Rbt.Receptor>
def.prm

>  <SCORE>
-13.0577

>  <SCORE.INTER>
-12.1669

>  <SCORE.INTER.CONST>
1

>  <SCORE.INTER.POLAR>
-0.86329

>  <SCORE.INTER.REPUL>
0.00205124

>  <SCORE.INTER.ROT>
2

>  <SCORE.INTER.VDW>
-16.642

>  <SCORE.INTER.norm>
-0.579378

>  <SCORE.INTRA>
-0.58642

>  <SCORE.INTRA.DIHEDRAL>
-1.26259

>  <SCORE.INTRA.DIHEDRAL.0>
6.03438

>  <SCORE.INTRA.POLAR>
-0.0984303

>  <SCORE.INTRA.POLAR.0>
0

>  <SCORE.INTRA.REPUL>
0

>  <SCORE.INTRA.REPUL.0>
0

>  <SCORE.INTRA.VDW>
0.379539

>  <SCORE.INTRA.VDW.0>
0.298713

>  <SCORE.INTRA.norm>
-0.0279248

>  <SCORE.RESTR>
0

>  <SCORE.RESTR.CAVITY>
0

>  <SCORE.RESTR.norm>
0

>  <SCORE.SYSTEM>
-0.304354

>  <SCORE.SYSTEM.CONST>
0

>  <SCORE.SYSTEM.DIHEDRAL>
1.39198

>  <SCORE.SYSTEM.VDW>
-1.00034

>  <SCORE.SYSTEM.norm>
-0.014493

>  <SCORE.heavy>
21

>  <SCORE.norm>
-0.621796

$$$$
Wogonin.pdb
  RxDock  02242110113D
librxdock.so/0.1.0
 23 25  0  0  0  0  0  0  0  0999 V2000
  -49.9651    0.1761   15.0536 O   0  0  0  0  0  0
  -50.3642    0.9653   17.6160 O   0  0  0  0  0  0
  -51.0746   -4.3616   16.3464 O   0  0  0  0  0  0
  -51.1105   -0.8651   19.5504 O   0  0  0  0  0  0
  -50.4355   -3.6998   13.8894 O   0  0  0  0  0  0
  -50.5110   -2.1167   15.6420 C   0  0  0  0  0  0
  -50.3337   -0.7745   15.9724 C   0  0  0  0  0  0
  -49.7524   -0.2212   13.7422 C   0  0  0  0  0  0
  -50.5349   -0.3462   17.2849 C   0  0  0  0  0  0
  -50.2956   -2.5393   14.2503 C   0  0  0  0  0  0
  -50.8883   -3.0408   16.6187 C   0  0  0  0  0  0
  -49.8972   -1.4800   13.3013 C   0  0  0  0  0  0
  -49.3649    0.8804   12.8373 C   0  0  0  0  0  0
  -50.9116   -1.2662   18.2646 C   0  0  0  0  0  0
  -51.0880   -2.6106   17.9317 C   0  0  0  0  0  0
  -50.1594    2.0254   12.7450 C   0  0  0  0  0  0
  -48.2014    0.7823   12.0703 C   0  0  0  0  0  0
  -49.7942    3.0656   11.8917 C   0  0  0  0  0  0
  -47.8352    1.8231   11.2163 C   0  0  0  0  0  0
  -48.6316    2.9644   11.1273 C   0  0  0  0  0  0
  -49.1831    1.3008   18.3416 C   0  0  0  0  0  0
  -51.4719   -4.8131   17.1059 H   0  0  0  0  0  0
  -51.3116    0.0870   19.5587 H   0  0  0  0  0  0
  1  7  1  0  0  0
  1  8  1  0  0  0
  2  9  1  0  0  0
  2 21  1  0  0  0
  3 11  1  0  0  0
  3 22  1  0  0  0
  4 14  1  0  0  0
  4 23  1  0  0  0
  5 10  2  0  0  0
  6  7  2  0  0  0
  6 10  1  0  0  0
  6 11  1  0  0  0
  7  9  1  0  0  0
  8 12  2  0  0  0
  8 13  1  0  0  0
  9 14  2  0  0  0
 10 12  1  0  0  0
 11 15  2  0  0  0
 13 16  2  0  0  0
 13 17  1  0  0  0
 14 15  1  0  0  0
 16 18  1  0  0  0
 17 19  2  0  0  0
 18 20  2  0  0  0
 19 20  1  0  0  0
M  END
>  <CHROM.0>
-179.41066584,-66.42638635,66.42792338

>  <CHROM.1>
-105.23269024,-170.64600672,23.06013016,-54.06845370,-50.04104423,-0.48342092
15.14092083,-0.24081923,1.29757021,0.83736069

>  <Name>
Wogonin.pdb

>  <RI>
-8.0202e+08

>  <Rbt.Current_Directory>
/root/miniconda3/envs/rdock/share/rxdock-2013.1.1_148c5bd1-0/data/ligands/prepped_ligands/Wogonin

>  <Rbt.Executable>
rbdock/0.1.0

>  <Rbt.Library>
librxdock.so/0.1.0

>  <Rbt.Parameter_File>
/root/miniconda3/envs/rdock/share/rxdock-2013.1.1_148c5bd1-0/data/scripts/dock.prm

>  <Rbt.Receptor>
def.prm

>  <SCORE>
-14.1847

>  <SCORE.INTER>
-14.2008

>  <SCORE.INTER.CONST>
1

>  <SCORE.INTER.POLAR>
-0.722438

>  <SCORE.INTER.REPUL>
0

>  <SCORE.INTER.ROT>
2

>  <SCORE.INTER.VDW>
-19.1446

>  <SCORE.INTER.norm>
-0.676231

>  <SCORE.INTRA>
0.95155

>  <SCORE.INTRA.DIHEDRAL>
2.48157

>  <SCORE.INTRA.DIHEDRAL.0>
6.03438

>  <SCORE.INTRA.POLAR>
0

>  <SCORE.INTRA.POLAR.0>
0

>  <SCORE.INTRA.REPUL>
0

>  <SCORE.INTRA.REPUL.0>
0

>  <SCORE.INTRA.VDW>
-0.289235

>  <SCORE.INTRA.VDW.0>
0.298713

>  <SCORE.INTRA.norm>
0.0453119

>  <SCORE.RESTR>
0

>  <SCORE.RESTR.CAVITY>
0

>  <SCORE.RESTR.norm>
0

>  <SCORE.SYSTEM>
-0.935355

>  <SCORE.SYSTEM.CONST>
0

>  <SCORE.SYSTEM.DIHEDRAL>
0.298346

>  <SCORE.SYSTEM.POLAR>
-0.0130352

>  <SCORE.SYSTEM.VDW>
-1.04021

>  <SCORE.SYSTEM.norm>
-0.0445407

>  <SCORE.heavy>
21

>  <SCORE.norm>
-0.67546

$$$$
Wogonin.pdb
  RxDock  02242110113D
librxdock.so/0.1.0
 23 25  0  0  0  0  0  0  0  0999 V2000
  -50.5376   -4.2106   15.6569 O   0  0  0  0  0  0
  -48.1266   -4.8474   16.7199 O   0  0  0  0  0  0
  -48.5777   -0.1935   13.7821 O   0  0  0  0  0  0
  -45.9417   -3.1951   16.3383 O   0  0  0  0  0  0
  -51.1012   -0.8312   13.4521 O   0  0  0  0  0  0
  -49.6118   -2.1819   14.6933 C   0  0  0  0  0  0
  -49.4879   -3.3542   15.4367 C   0  0  0  0  0  0
  -51.7757   -3.8881   15.1222 C   0  0  0  0  0  0
  -48.2561   -3.7019   15.9919 C   0  0  0  0  0  0
  -50.9209   -1.8422   14.1169 C   0  0  0  0  0  0
  -48.5083   -1.3480   14.5003 C   0  0  0  0  0  0
  -52.0183   -2.7938   14.3850 C   0  0  0  0  0  0
  -52.8317   -4.8789   15.4149 C   0  0  0  0  0  0
  -47.1506   -2.8713   15.8021 C   0  0  0  0  0  0
  -47.2769   -1.6970   15.0575 C   0  0  0  0  0  0
  -54.1027   -4.7367   14.8535 C   0  0  0  0  0  0
  -52.5636   -5.9633   16.2539 C   0  0  0  0  0  0
  -55.0996   -5.6716   15.1287 C   0  0  0  0  0  0
  -53.5609   -6.8995   16.5295 C   0  0  0  0  0  0
  -54.8284   -6.7534   15.9668 C   0  0  0  0  0  0
  -48.8115   -4.9004   17.9697 C   0  0  0  0  0  0
  -49.3967   -0.1626   13.2656 H   0  0  0  0  0  0
  -46.0650   -3.9014   16.9964 H   0  0  0  0  0  0
  1  7  1  0  0  0
  1  8  1  0  0  0
  2  9  1  0  0  0
  2 21  1  0  0  0
  3 11  1  0  0  0
  3 22  1  0  0  0
  4 14  1  0  0  0
  4 23  1  0  0  0
  5 10  2  0  0  0
  6  7  2  0  0  0
  6 10  1  0  0  0
  6 11  1  0  0  0
  7  9  1  0  0  0
  8 12  2  0  0  0
  8 13  1  0  0  0
  9 14  2  0  0  0
 10 12  1  0  0  0
 11 15  2  0  0  0
 13 16  2  0  0  0
 13 17  1  0  0  0
 14 15  1  0  0  0
 16 18  1  0  0  0
 17 19  2  0  0  0
 18 20  2  0  0  0
 19 20  1  0  0  0
M  END
>  <CHROM.0>
-175.24829392,-65.09207611,173.50233668

>  <CHROM.1>
-67.40567183,-14.15191119,-13.95125357,-175.06043702,-50.42858907,-3.61849973
15.40238654,-2.68262154,-0.27369941,-0.60485575

>  <Name>
Wogonin.pdb

>  <RI>
-8.0202e+08

>  <Rbt.Current_Directory>
/root/miniconda3/envs/rdock/share/rxdock-2013.1.1_148c5bd1-0/data/ligands/prepped_ligands/Wogonin

>  <Rbt.Executable>
rbdock/0.1.0

>  <Rbt.Library>
librxdock.so/0.1.0

>  <Rbt.Parameter_File>
/root/miniconda3/envs/rdock/share/rxdock-2013.1.1_148c5bd1-0/data/scripts/dock.prm

>  <Rbt.Receptor>
def.prm

>  <SCORE>
-15.1452

>  <SCORE.INTER>
-13.7179

>  <SCORE.INTER.CONST>
1

>  <SCORE.INTER.POLAR>
-0.824621

>  <SCORE.INTER.REPUL>
0.00147508

>  <SCORE.INTER.ROT>
2

>  <SCORE.INTER.VDW>
-18.3215

>  <SCORE.INTER.norm>
-0.653231

>  <SCORE.INTRA>
-0.440715

>  <SCORE.INTRA.DIHEDRAL>
-1.34439

>  <SCORE.INTRA.DIHEDRAL.0>
6.03438

>  <SCORE.INTRA.POLAR>
-0.054095

>  <SCORE.INTRA.POLAR.0>
0

>  <SCORE.INTRA.REPUL>
0

>  <SCORE.INTRA.REPUL.0>
0

>  <SCORE.INTRA.VDW>
0.415404

>  <SCORE.INTRA.VDW.0>
0.298713

>  <SCORE.INTRA.norm>
-0.0209864

>  <SCORE.RESTR>
0

>  <SCORE.RESTR.CAVITY>
0

>  <SCORE.RESTR.norm>
0

>  <SCORE.SYSTEM>
-0.986608

>  <SCORE.SYSTEM.CONST>
0

>  <SCORE.SYSTEM.DIHEDRAL>
0.287709

>  <SCORE.SYSTEM.VDW>
-1.13046

>  <SCORE.SYSTEM.norm>
-0.0469813

>  <SCORE.heavy>
21

>  <SCORE.norm>
-0.721199

$$$$
Wogonin.pdb
  RxDock  02242110113D
librxdock.so/0.1.0
 23 25  0  0  0  0  0  0  0  0999 V2000
  -47.8882   -1.5658   16.8632 O   0  0  0  0  0  0
  -46.8256    0.1190   18.7018 O   0  0  0  0  0  0
  -43.4965   -2.0607   14.8731 O   0  0  0  0  0  0
  -44.1288    0.7308   18.6547 O   0  0  0  0  0  0
  -45.6215   -3.2928   13.9514 O   0  0  0  0  0  0
  -45.7120   -1.8524   15.8223 C   0  0  0  0  0  0
  -46.5442   -1.2968   16.7924 C   0  0  0  0  0  0
  -48.4404   -2.4213   15.9220 C   0  0  0  0  0  0
  -46.0182   -0.4281   17.7491 C   0  0  0  0  0  0
  -46.2928   -2.7674   14.8289 C   0  0  0  0  0  0
  -44.3502   -1.5438   15.7990 C   0  0  0  0  0  0
  -47.7430   -3.0219   14.9458 C   0  0  0  0  0  0
  -49.8906   -2.6453   16.0929 C   0  0  0  0  0  0
  -44.6579   -0.1163   17.7293 C   0  0  0  0  0  0
  -43.8259   -0.6734   16.7563 C   0  0  0  0  0  0
  -50.5785   -2.0241   17.1378 C   0  0  0  0  0  0
  -50.5809   -3.4789   15.2096 C   0  0  0  0  0  0
  -51.9471   -2.2344   17.2994 C   0  0  0  0  0  0
  -51.9508   -3.6897   15.3707 C   0  0  0  0  0  0
  -52.6334   -3.0674   16.4155 C   0  0  0  0  0  0
  -47.2680    1.4573   18.4840 C   0  0  0  0  0  0
  -43.9426   -2.7323   14.3361 H   0  0  0  0  0  0
  -43.1666    0.7873   18.5203 H   0  0  0  0  0  0
  1  7  1  0  0  0
  1  8  1  0  0  0
  2  9  1  0  0  0
  2 21  1  0  0  0
  3 11  1  0  0  0
  3 22  1  0  0  0
  4 14  1  0  0  0
  4 23  1  0  0  0
  5 10  2  0  0  0
  6  7  2  0  0  0
  6 10  1  0  0  0
  6 11  1  0  0  0
  7  9  1  0  0  0
  8 12  2  0  0  0
  8 13  1  0  0  0
  9 14  2  0  0  0
 10 12  1  0  0  0
 11 15  2  0  0  0
 13 16  2  0  0  0
 13 17  1  0  0  0
 14 15  1  0  0  0
 16 18  1  0  0  0
 17 19  2  0  0  0
 18 20  2  0  0  0
 19 20  1  0  0  0
M  END
>  <CHROM.0>
174.51831113,-61.17346325,59.44770999

>  <CHROM.1>
-99.97865966,-7.16669876,176.60120295,-0.37297250,-47.34841658,-1.65677241
16.47333177,2.83594946,-0.17726670,-2.30167302

>  <Name>
Wogonin.pdb

>  <RI>
-8.0202e+08

>  <Rbt.Current_Directory>
/root/miniconda3/envs/rdock/share/rxdock-2013.1.1_148c5bd1-0/data/ligands/prepped_ligands/Wogonin

>  <Rbt.Executable>
rbdock/0.1.0

>  <Rbt.Library>
librxdock.so/0.1.0

>  <Rbt.Parameter_File>
/root/miniconda3/envs/rdock/share/rxdock-2013.1.1_148c5bd1-0/data/scripts/dock.prm

>  <Rbt.Receptor>
def.prm

>  <SCORE>
-8.0414

>  <SCORE.INTER>
-6.94559

>  <SCORE.INTER.CONST>
1

>  <SCORE.INTER.POLAR>
-0.0542515

>  <SCORE.INTER.REPUL>
0

>  <SCORE.INTER.ROT>
2

>  <SCORE.INTER.VDW>
-14.1611

>  <SCORE.INTER.norm>
-0.330742

>  <SCORE.INTRA>
-0.100596

>  <SCORE.INTRA.DIHEDRAL>
-1.28602

>  <SCORE.INTRA.DIHEDRAL.0>
6.03438

>  <SCORE.INTRA.POLAR>
0

>  <SCORE.INTRA.POLAR.0>
0

>  <SCORE.INTRA.REPUL>
0

>  <SCORE.INTRA.REPUL.0>
0

>  <SCORE.INTRA.VDW>
0.542415

>  <SCORE.INTRA.VDW.0>
0.298713

>  <SCORE.INTRA.norm>
-0.00479027

>  <SCORE.RESTR>
0

>  <SCORE.RESTR.CAVITY>
0

>  <SCORE.RESTR.norm>
0

>  <SCORE.SYSTEM>
-0.99522

>  <SCORE.SYSTEM.CONST>
0

>  <SCORE.SYSTEM.DIHEDRAL>
0.085825

>  <SCORE.SYSTEM.VDW>
-1.03813

>  <SCORE.SYSTEM.norm>
-0.0473914

>  <SCORE.heavy>
21

>  <SCORE.norm>
-0.382924

$$$$
Wogonin.pdb
  RxDock  02242110113D
librxdock.so/0.1.0
 23 25  0  0  0  0  0  0  0  0999 V2000
  -47.5255   -1.1698   16.8188 O   0  0  0  0  0  0
  -47.5969   -0.5616   19.4595 O   0  0  0  0  0  0
  -42.8110   -2.2086   17.2515 O   0  0  0  0  0  0
  -45.3156   -0.7626   21.0102 O   0  0  0  0  0  0
  -44.1079   -2.4092   14.9796 O   0  0  0  0  0  0
  -45.1607   -1.7037   16.9739 C   0  0  0  0  0  0
  -46.3638   -1.2867   17.5403 C   0  0  0  0  0  0
  -47.4953   -1.4725   15.4660 C   0  0  0  0  0  0
  -46.4236   -0.9697   18.8977 C   0  0  0  0  0  0
  -45.1278   -2.0347   15.5418 C   0  0  0  0  0  0
  -44.0090   -1.8057   17.7571 C   0  0  0  0  0  0
  -46.4023   -1.8897   14.8094 C   0  0  0  0  0  0
  -48.7986   -1.3179   14.7877 C   0  0  0  0  0  0
  -45.2750   -1.0696   19.6844 C   0  0  0  0  0  0
  -44.0705   -1.4869   19.1149 C   0  0  0  0  0  0
  -49.7645   -2.3220   14.8859 C   0  0  0  0  0  0
  -49.0714   -0.1661   14.0456 C   0  0  0  0  0  0
  -50.9948   -2.1767   14.2467 C   0  0  0  0  0  0
  -50.3027   -0.0200   13.4058 C   0  0  0  0  0  0
  -51.2640   -1.0251   13.5066 C   0  0  0  0  0  0
  -48.6212   -1.5435   19.6035 C   0  0  0  0  0  0
  -42.9416   -2.8435   16.5315 H   0  0  0  0  0  0
  -46.2230   -0.5039   21.2487 H   0  0  0  0  0  0
  1  7  1  0  0  0
  1  8  1  0  0  0
  2  9  1  0  0  0
  2 21  1  0  0  0
  3 11  1  0  0  0
  3 22  1  0  0  0
  4 14  1  0  0  0
  4 23  1  0  0  0
  5 10  2  0  0  0
  6  7  2  0  0  0
  6 10  1  0  0  0
  6 11  1  0  0  0
  7  9  1  0  0  0
  8 12  2  0  0  0
  8 13  1  0  0  0
  9 14  2  0  0  0
 10 12  1  0  0  0
 11 15  2  0  0  0
 13 16  2  0  0  0
 13 17  1  0  0  0
 14 15  1  0  0  0
 16 18  1  0  0  0
 17 19  2  0  0  0
 18 20  2  0  0  0
 19 20  1  0  0  0
M  END
>  <CHROM.0>
-53.05654476,62.97799783,-64.13969201

>  <CHROM.1>
70.48712107,-31.89163858,0.76312353,-80.47563156,-46.91744791,-1.40260827
16.74662246,2.42953736,0.17760257,-1.71764702

>  <Name>
Wogonin.pdb

>  <RI>
-8.0202e+08

>  <Rbt.Current_Directory>
/root/miniconda3/envs/rdock/share/rxdock-2013.1.1_148c5bd1-0/data/ligands/prepped_ligands/Wogonin

>  <Rbt.Executable>
rbdock/0.1.0

>  <Rbt.Library>
librxdock.so/0.1.0

>  <Rbt.Parameter_File>
/root/miniconda3/envs/rdock/share/rxdock-2013.1.1_148c5bd1-0/data/scripts/dock.prm

>  <Rbt.Receptor>
def.prm

>  <SCORE>
-10.4351

>  <SCORE.INTER>
-10.378

>  <SCORE.INTER.CONST>
1

>  <SCORE.INTER.POLAR>
-0.87178

>  <SCORE.INTER.REPUL>
0

>  <SCORE.INTER.ROT>
2

>  <SCORE.INTER.VDW>
-14.814

>  <SCORE.INTER.norm>
-0.494193

>  <SCORE.INTRA>
0.832582

>  <SCORE.INTRA.DIHEDRAL>
4.25236

>  <SCORE.INTRA.DIHEDRAL.0>
6.03438

>  <SCORE.INTRA.POLAR>
-0.0836113

>  <SCORE.INTRA.POLAR.0>
0

>  <SCORE.INTRA.REPUL>
0

>  <SCORE.INTRA.REPUL.0>
0

>  <SCORE.INTRA.VDW>
-1.00932

>  <SCORE.INTRA.VDW.0>
0.298713

>  <SCORE.INTRA.norm>
0.0396468

>  <SCORE.RESTR>
0.0493473

>  <SCORE.RESTR.CAVITY>
0.0493473

>  <SCORE.RESTR.norm>
0.00234987

>  <SCORE.SYSTEM>
-0.938992

>  <SCORE.SYSTEM.CONST>
0

>  <SCORE.SYSTEM.DIHEDRAL>
0.20197

>  <SCORE.SYSTEM.VDW>
-1.03998

>  <SCORE.SYSTEM.norm>
-0.0447139

>  <SCORE.heavy>
21

>  <SCORE.norm>
-0.49691

$$$$
Wogonin.pdb
  RxDock  02242110113D
librxdock.so/0.1.0
 23 25  0  0  0  0  0  0  0  0999 V2000
  -51.8738   -4.0761   16.7924 O   0  0  0  0  0  0
  -50.3185   -3.9590   19.0095 O   0  0  0  0  0  0
  -49.4763   -0.2696   14.9882 O   0  0  0  0  0  0
  -48.3529   -2.0279   19.2471 O   0  0  0  0  0  0
  -51.4273   -1.4607   13.7005 O   0  0  0  0  0  0
  -50.7091   -2.1704   15.8368 C   0  0  0  0  0  0
  -50.9142   -3.0970   16.8575 C   0  0  0  0  0  0
  -52.6779   -4.1381   15.6644 C   0  0  0  0  0  0
  -50.1245   -3.0558   18.0069 C   0  0  0  0  0  0
  -51.5536   -2.2397   14.6354 C   0  0  0  0  0  0
  -49.7162   -1.1957   15.9567 C   0  0  0  0  0  0
  -52.5728   -3.3085   14.6153 C   0  0  0  0  0  0
  -53.6719   -5.2305   15.6959 C   0  0  0  0  0  0
  -49.1313   -2.0830   18.1314 C   0  0  0  0  0  0
  -48.9277   -1.1553   17.1081 C   0  0  0  0  0  0
  -53.3114   -6.4943   16.1689 C   0  0  0  0  0  0
  -54.9776   -5.0042   15.2536 C   0  0  0  0  0  0
  -54.2490   -7.5255   16.1995 C   0  0  0  0  0  0
  -55.9166   -6.0359   15.2842 C   0  0  0  0  0  0
  -55.5520   -7.2961   15.7572 C   0  0  0  0  0  0
  -51.5149   -3.8288   19.7750 C   0  0  0  0  0  0
  -48.6112    0.1457   15.1210 H   0  0  0  0  0  0
  -48.6853   -2.6701   19.8984 H   0  0  0  0  0  0
  1  7  1  0  0  0
  1  8  1  0  0  0
  2  9  1  0  0  0
  2 21  1  0  0  0
  3 11  1  0  0  0
  3 22  1  0  0  0
  4 14  1  0  0  0
  4 23  1  0  0  0
  5 10  2  0  0  0
  6  7  2  0  0  0
  6 10  1  0  0  0
  6 11  1  0  0  0
  7  9  1  0  0  0
  8 12  2  0  0  0
  8 13  1  0  0  0
  9 14  2  0  0  0
 10 12  1  0  0  0
 11 15  2  0  0  0
 13 16  2  0  0  0
 13 17  1  0  0  0
 14 15  1  0  0  0
 16 18  1  0  0  0
 17 19  2  0  0  0
 18 20  2  0  0  0
 19 20  1  0  0  0
M  END
>  <CHROM.0>
-68.24968402,-69.67081741,57.16647714

>  <CHROM.1>
-70.28744232,-163.58678754,-6.35005698,-41.82953326,-51.67933384,-3.54216693
16.46452351,-2.97085672,-0.72461602,-0.99587737

>  <Name>
Wogonin.pdb

>  <RI>
-8.0202e+08

>  <Rbt.Current_Directory>
/root/miniconda3/envs/rdock/share/rxdock-2013.1.1_148c5bd1-0/data/ligands/prepped_ligands/Wogonin

>  <Rbt.Executable>
rbdock/0.1.0

>  <Rbt.Library>
librxdock.so/0.1.0

>  <Rbt.Parameter_File>
/root/miniconda3/envs/rdock/share/rxdock-2013.1.1_148c5bd1-0/data/scripts/dock.prm

>  <Rbt.Receptor>
def.prm

>  <SCORE>
-12.5764

>  <SCORE.INTER>
-11.8006

>  <SCORE.INTER.CONST>
1

>  <SCORE.INTER.POLAR>
-0.829319

>  <SCORE.INTER.REPUL>
0

>  <SCORE.INTER.ROT>
2

>  <SCORE.INTER.VDW>
-16.3809

>  <SCORE.INTER.norm>
-0.561931

>  <SCORE.INTRA>
0.0291558

>  <SCORE.INTRA.DIHEDRAL>
0.838576

>  <SCORE.INTRA.DIHEDRAL.0>
6.03438

>  <SCORE.INTRA.POLAR>
-0.0713406

>  <SCORE.INTRA.POLAR.0>
0

>  <SCORE.INTRA.REPUL>
0

>  <SCORE.INTRA.REPUL.0>
0

>  <SCORE.INTRA.VDW>
-0.147574

>  <SCORE.INTRA.VDW.0>
0.298713

>  <SCORE.INTRA.norm>
0.00138837

>  <SCORE.RESTR>
0

>  <SCORE.RESTR.CAVITY>
0

>  <SCORE.RESTR.norm>
0

>  <SCORE.SYSTEM>
-0.805008

>  <SCORE.SYSTEM.CONST>
0

>  <SCORE.SYSTEM.DIHEDRAL>
0.645256

>  <SCORE.SYSTEM.VDW>
-1.12764

>  <SCORE.SYSTEM.norm>
-0.0383337

>  <SCORE.heavy>
21

>  <SCORE.norm>
-0.598876

$$$$
Wogonin.pdb
  RxDock  02242110113D
librxdock.so/0.1.0
 23 25  0  0  0  0  0  0  0  0999 V2000
  -50.2810   -0.0747   15.1321 O   0  0  0  0  0  0
  -50.9949    0.8038   17.5952 O   0  0  0  0  0  0
  -51.4777   -4.5792   16.4625 O   0  0  0  0  0  0
  -51.9435   -0.9651   19.4979 O   0  0  0  0  0  0
  -50.5573   -3.9996   14.0749 O   0  0  0  0  0  0
  -50.8632   -2.3530   15.7417 C   0  0  0  0  0  0
  -50.7446   -0.9962   16.0374 C   0  0  0  0  0  0
  -49.9074   -0.5174   13.8723 C   0  0  0  0  0  0
  -51.1074   -0.5221   17.2984 C   0  0  0  0  0  0
  -50.4770   -2.8240   14.4036 C   0  0  0  0  0  0
  -51.3428   -3.2459   16.7024 C   0  0  0  0  0  0
  -49.9817   -1.7944   13.4676 C   0  0  0  0  0  0
  -49.4288    0.5558   12.9770 C   0  0  0  0  0  0
  -51.5866   -1.4110   18.2619 C   0  0  0  0  0  0
  -51.7041   -2.7700   17.9640 C   0  0  0  0  0  0
  -50.2227    1.6808   12.7429 C   0  0  0  0  0  0
  -48.1792    0.4508   12.3610 C   0  0  0  0  0  0
  -49.7715    2.6943   11.8987 C   0  0  0  0  0  0
  -47.7270    1.4650   11.5161 C   0  0  0  0  0  0
  -48.5232    2.5863   11.2853 C   0  0  0  0  0  0
  -49.7744    1.2306   18.1971 C   0  0  0  0  0  0
  -51.2676   -4.7818   15.5387 H   0  0  0  0  0  0
  -52.3990   -1.6809   19.9745 H   0  0  0  0  0  0
  1  7  1  0  0  0
  1  8  1  0  0  0
  2  9  1  0  0  0
  2 21  1  0  0  0
  3 11  1  0  0  0
  3 22  1  0  0  0
  4 14  1  0  0  0
  4 23  1  0  0  0
  5 10  2  0  0  0
  6  7  2  0  0  0
  6 10  1  0  0  0
  6 11  1  0  0  0
  7  9  1  0  0  0
  8 12  2  0  0  0
  8 13  1  0  0  0
  9 14  2  0  0  0
 10 12  1  0  0  0
 11 15  2  0  0  0
 13 16  2  0  0  0
 13 17  1  0  0  0
 14 15  1  0  0  0
 16 18  1  0  0  0
 17 19  2  0  0  0
 18 20  2  0  0  0
 19 20  1  0  0  0
M  END
>  <CHROM.0>
178.26790385,179.78419630,-179.92370159

>  <CHROM.1>
-92.33319697,-4.56672764,169.85221525,-54.20405820,-50.34922632,-0.73447878
15.21888007,0.04625735,1.21261730,0.53450398

>  <Name>
Wogonin.pdb

>  <RI>
-8.0202e+08

>  <Rbt.Current_Directory>
/root/miniconda3/envs/rdock/share/rxdock-2013.1.1_148c5bd1-0/data/ligands/prepped_ligands/Wogonin

>  <Rbt.Executable>
rbdock/0.1.0

>  <Rbt.Library>
librxdock.so/0.1.0

>  <Rbt.Parameter_File>
/root/miniconda3/envs/rdock/share/rxdock-2013.1.1_148c5bd1-0/data/scripts/dock.prm

>  <Rbt.Receptor>
def.prm

>  <SCORE>
-14.7409

>  <SCORE.INTER>
-14.228

>  <SCORE.INTER.CONST>
1

>  <SCORE.INTER.POLAR>
-0.749028

>  <SCORE.INTER.REPUL>
0.0194867

>  <SCORE.INTER.ROT>
2

>  <SCORE.INTER.VDW>
-19.1787

>  <SCORE.INTER.norm>
-0.677522

>  <SCORE.INTRA>
0.572223

>  <SCORE.INTRA.DIHEDRAL>
2.13433

>  <SCORE.INTRA.DIHEDRAL.0>
6.03438

>  <SCORE.INTRA.POLAR>
0

>  <SCORE.INTRA.POLAR.0>
0

>  <SCORE.INTRA.REPUL>
0

>  <SCORE.INTRA.REPUL.0>
0

>  <SCORE.INTRA.VDW>
-0.494942

>  <SCORE.INTRA.VDW.0>
0.298713

>  <SCORE.INTRA.norm>
0.0272487

>  <SCORE.RESTR>
0

>  <SCORE.RESTR.CAVITY>
0

>  <SCORE.RESTR.norm>
0

>  <SCORE.SYSTEM>
-1.08516

>  <SCORE.SYSTEM.CONST>
0

>  <SCORE.SYSTEM.DIHEDRAL>
0.00905867

>  <SCORE.SYSTEM.POLAR>
-0.00218246

>  <SCORE.SYSTEM.VDW>
-1.08227

>  <SCORE.SYSTEM.norm>
-0.0516742

>  <SCORE.heavy>
21

>  <SCORE.norm>
-0.701948

$$$$
Wogonin.pdb
  RxDock  02242110113D
librxdock.so/0.1.0
 23 25  0  0  0  0  0  0  0  0999 V2000
  -50.2696   -0.0008   15.0713 O   0  0  0  0  0  0
  -50.9996    0.8218   17.5490 O   0  0  0  0  0  0
  -51.3440   -4.5546   16.3369 O   0  0  0  0  0  0
  -51.8964   -0.9996   19.4271 O   0  0  0  0  0  0
  -50.4456   -3.9155   13.9562 O   0  0  0  0  0  0
  -50.7901   -2.3025   15.6482 C   0  0  0  0  0  0
  -50.7064   -0.9476   15.9638 C   0  0  0  0  0  0
  -49.8878   -0.4148   13.8042 C   0  0  0  0  0  0
  -51.0781   -0.5021   17.2326 C   0  0  0  0  0  0
  -50.3953   -2.7432   14.3023 C   0  0  0  0  0  0
  -51.2435   -3.2219   16.5964 C   0  0  0  0  0  0
  -49.9297   -1.6871   13.3806 C   0  0  0  0  0  0
  -49.4399    0.6839   12.9240 C   0  0  0  0  0  0
  -51.5312   -1.4175   18.1838 C   0  0  0  0  0  0
  -51.6138   -2.7745   17.8659 C   0  0  0  0  0  0
  -48.2086    0.6018   12.2698 C   0  0  0  0  0  0
  -50.2465    1.8099   12.7411 C   0  0  0  0  0  0
  -47.7856    1.6378   11.4385 C   0  0  0  0  0  0
  -49.8237    2.8471   11.9091 C   0  0  0  0  0  0
  -48.5935    2.7607   11.2580 C   0  0  0  0  0  0
  -49.8419    1.2484   18.2643 C   0  0  0  0  0  0
  -50.8577   -4.7820   15.5304 H   0  0  0  0  0  0
  -52.1983   -1.7668   19.9442 H   0  0  0  0  0  0
  1  7  1  0  0  0
  1  8  1  0  0  0
  2  9  1  0  0  0
  2 21  1  0  0  0
  3 11  1  0  0  0
  3 22  1  0  0  0
  4 14  1  0  0  0
  4 23  1  0  0  0
  5 10  2  0  0  0
  6  7  2  0  0  0
  6 10  1  0  0  0
  6 11  1  0  0  0
  7  9  1  0  0  0
  8 12  2  0  0  0
  8 13  1  0  0  0
  9 14  2  0  0  0
 10 12  1  0  0  0
 11 15  2  0  0  0
 13 16  2  0  0  0
 13 17  1  0  0  0
 14 15  1  0  0  0
 16 18  1  0  0  0
 17 19  2  0  0  0
 18 20  2  0  0  0
 19 20  1  0  0  0
M  END
>  <CHROM.0>
179.79854319,60.43081997,-66.08947477

>  <CHROM.1>
-97.92646460,14.60593549,178.96885368,127.80334510,-50.32171519,-0.66512364
15.15446368,0.11058439,1.22883215,0.48366115

>  <Name>
Wogonin.pdb

>  <RI>
-8.0202e+08

>  <Rbt.Current_Directory>
/root/miniconda3/envs/rdock/share/rxdock-2013.1.1_148c5bd1-0/data/ligands/prepped_ligands/Wogonin

>  <Rbt.Executable>
rbdock/0.1.0

>  <Rbt.Library>
librxdock.so/0.1.0

>  <Rbt.Parameter_File>
/root/miniconda3/envs/rdock/share/rxdock-2013.1.1_148c5bd1-0/data/scripts/dock.prm

>  <Rbt.Receptor>
def.prm

>  <SCORE>
-14.7775

>  <SCORE.INTER>
-14.3618

>  <SCORE.INTER.CONST>
1

>  <SCORE.INTER.POLAR>
-0.734574

>  <SCORE.INTER.REPUL>
0.0342123

>  <SCORE.INTER.ROT>
2

>  <SCORE.INTER.VDW>
-19.4353

>  <SCORE.INTER.norm>
-0.683896

>  <SCORE.INTRA>
0.535948

>  <SCORE.INTRA.DIHEDRAL>
2.01574

>  <SCORE.INTRA.DIHEDRAL.0>
6.03438

>  <SCORE.INTRA.POLAR>
0

>  <SCORE.INTRA.POLAR.0>
0

>  <SCORE.INTRA.REPUL>
0

>  <SCORE.INTRA.REPUL.0>
0

>  <SCORE.INTRA.VDW>
-0.47192

>  <SCORE.INTRA.VDW.0>
0.298713

>  <SCORE.INTRA.norm>
0.0255213

>  <SCORE.RESTR>
0

>  <SCORE.RESTR.CAVITY>
0

>  <SCORE.RESTR.norm>
0

>  <SCORE.SYSTEM>
-0.951583

>  <SCORE.SYSTEM.CONST>
0

>  <SCORE.SYSTEM.DIHEDRAL>
0.0969661

>  <SCORE.SYSTEM.VDW>
-1.00007

>  <SCORE.SYSTEM.norm>
-0.0453135

>  <SCORE.heavy>
21

>  <SCORE.norm>
-0.703688

$$$$
Wogonin.pdb
  RxDock  02242110113D
librxdock.so/0.1.0
 23 25  0  0  0  0  0  0  0  0999 V2000
  -50.0296    0.1384   15.2570 O   0  0  0  0  0  0
  -49.6496    0.8716   17.8389 O   0  0  0  0  0  0
  -52.4844   -3.7497   16.7898 O   0  0  0  0  0  0
  -50.6624   -0.6685   19.9009 O   0  0  0  0  0  0
  -52.0923   -3.2274   14.2488 O   0  0  0  0  0  0
  -51.2680   -1.8279   15.9650 C   0  0  0  0  0  0
  -50.5535   -0.6634   16.2400 C   0  0  0  0  0  0
  -50.2139   -0.2338   13.9340 C   0  0  0  0  0  0
  -50.3470   -0.2666   17.5616 C   0  0  0  0  0  0
  -51.4734   -2.2200   14.5630 C   0  0  0  0  0  0
  -51.7798   -2.6052   17.0063 C   0  0  0  0  0  0
  -50.8877   -1.3262   13.5434 C   0  0  0  0  0  0
  -49.6148    0.7007   12.9592 C   0  0  0  0  0  0
  -50.8562   -1.0406   18.6056 C   0  0  0  0  0  0
  -51.5712   -2.2072   18.3280 C   0  0  0  0  0  0
  -48.3404    0.4551   12.4430 C   0  0  0  0  0  0
  -50.3208    1.8341   12.5483 C   0  0  0  0  0  0
  -47.7747    1.3362   11.5226 C   0  0  0  0  0  0
  -49.7551    2.7162   11.6269 C   0  0  0  0  0  0
  -48.4824    2.4669   11.1143 C   0  0  0  0  0  0
  -50.3846    1.9625   18.3901 C   0  0  0  0  0  0
  -52.5110   -3.9594   15.8444 H   0  0  0  0  0  0
  -51.1384   -1.2858   20.4834 H   0  0  0  0  0  0
  1  7  1  0  0  0
  1  8  1  0  0  0
  2  9  1  0  0  0
  2 21  1  0  0  0
  3 11  1  0  0  0
  3 22  1  0  0  0
  4 14  1  0  0  0
  4 23  1  0  0  0
  5 10  2  0  0  0
  6  7  2  0  0  0
  6 10  1  0  0  0
  6 11  1  0  0  0
  7  9  1  0  0  0
  8 12  2  0  0  0
  8 13  1  0  0  0
  9 14  2  0  0  0
 10 12  1  0  0  0
 11 15  2  0  0  0
 13 16  2  0  0  0
 13 17  1  0  0  0
 14 15  1  0  0  0
 16 18  1  0  0  0
 17 19  2  0  0  0
 18 20  2  0  0  0
 19 20  1  0  0  0
M  END
>  <CHROM.0>
61.37929050,60.74465656,178.11844602

>  <CHROM.1>
111.19497701,4.13833885,175.92395488,95.41260417,-50.43677392,-0.39133235
15.36368131,-0.85922239,1.07801130,1.39893835

>  <Name>
Wogonin.pdb

>  <RI>
-8.0202e+08

>  <Rbt.Current_Directory>
/root/miniconda3/envs/rdock/share/rxdock-2013.1.1_148c5bd1-0/data/ligands/prepped_ligands/Wogonin

>  <Rbt.Executable>
rbdock/0.1.0

>  <Rbt.Library>
librxdock.so/0.1.0

>  <Rbt.Parameter_File>
/root/miniconda3/envs/rdock/share/rxdock-2013.1.1_148c5bd1-0/data/scripts/dock.prm

>  <Rbt.Receptor>
def.prm

>  <SCORE>
-13.4931

>  <SCORE.INTER>
-13.7221

>  <SCORE.INTER.CONST>
1

>  <SCORE.INTER.POLAR>
-0.059261

>  <SCORE.INTER.REPUL>
0.00585772

>  <SCORE.INTER.ROT>
2

>  <SCORE.INTER.VDW>
-20.9499

>  <SCORE.INTER.norm>
-0.653432

>  <SCORE.INTRA>
1.23253

>  <SCORE.INTRA.DIHEDRAL>
2.95373

>  <SCORE.INTRA.DIHEDRAL.0>
6.03438

>  <SCORE.INTRA.POLAR>
0

>  <SCORE.INTRA.POLAR.0>
0

>  <SCORE.INTRA.REPUL>
0

>  <SCORE.INTRA.REPUL.0>
0

>  <SCORE.INTRA.VDW>
-0.244338

>  <SCORE.INTRA.VDW.0>
0.298713

>  <SCORE.INTRA.norm>
0.0586919

>  <SCORE.RESTR>
0

>  <SCORE.RESTR.CAVITY>
0

>  <SCORE.RESTR.norm>
0

>  <SCORE.SYSTEM>
-1.00355

>  <SCORE.SYSTEM.CONST>
0

>  <SCORE.SYSTEM.DIHEDRAL>
0.01687

>  <SCORE.SYSTEM.VDW>
-1.01199

>  <SCORE.SYSTEM.norm>
-0.0477883

>  <SCORE.heavy>
21

>  <SCORE.norm>
-0.642529

$$$$
