Wogonin.pdb
  RxDock  02242101433D
librxdock.so/0.1.0
 23 25  0  0  0  0  0  0  0  0999 V2000
  -50.1707    0.0082   15.0073 O   0  0  0  0  0  0
  -51.0221    0.8139   17.4515 O   0  0  0  0  0  0
  -50.9648   -4.5902   16.3178 O   0  0  0  0  0  0
  -51.8425   -1.0378   19.3349 O   0  0  0  0  0  0
  -50.0481   -3.9249   13.9512 O   0  0  0  0  0  0
  -50.5479   -2.3154   15.6074 C   0  0  0  0  0  0
  -50.5657   -0.9536   15.9033 C   0  0  0  0  0  0
  -49.7274   -0.3966   13.7573 C   0  0  0  0  0  0
  -51.0011   -0.5166   17.1546 C   0  0  0  0  0  0
  -50.0876   -2.7471   14.2795 C   0  0  0  0  0  0
  -50.9628   -3.2502   16.5583 C   0  0  0  0  0  0
  -49.6706   -1.6747   13.3534 C   0  0  0  0  0  0
  -49.3322    0.7176   12.8714 C   0  0  0  0  0  0
  -51.4161   -1.4473   18.1084 C   0  0  0  0  0  0
  -51.3970   -2.8112   17.8103 C   0  0  0  0  0  0
  -50.1577    1.8365   12.7398 C   0  0  0  0  0  0
  -48.1302    0.6576   12.1619 C   0  0  0  0  0  0
  -49.7851    2.8886   11.9045 C   0  0  0  0  0  0
  -47.7566    1.7104   11.3259 C   0  0  0  0  0  0
  -48.5841    2.8255   11.1975 C   0  0  0  0  0  0
  -50.0198    1.2930   18.3459 C   0  0  0  0  0  0
  -51.5176   -5.0516   16.9658 H   0  0  0  0  0  0
  -52.2101   -1.8007   19.8145 H   0  0  0  0  0  0
  1  7  1  0  0  0
  1  8  1  0  0  0
  2  9  1  0  0  0
  2 21  1  0  0  0
  3 11  1  0  0  0
  3 22  1  0  0  0
  4 14  1  0  0  0
  4 23  1  0  0  0
  5 10  2  0  0  0
  6  7  2  0  0  0
  6 10  1  0  0  0
  6 11  1  0  0  0
  7  9  1  0  0  0
  8 12  2  0  0  0
  8 13  1  0  0  0
  9 14  2  0  0  0
 10 12  1  0  0  0
 11 15  2  0  0  0
 13 16  2  0  0  0
 13 17  1  0  0  0
 14 15  1  0  0  0
 16 18  1  0  0  0
 17 19  2  0  0  0
 18 20  2  0  0  0
 19 20  1  0  0  0
M  END
>  <CHROM.0>
64.75533052,62.45326547,178.51734128

>  <CHROM.1>
-106.54506955,-163.07397352,171.85536127,-46.69699914,-50.18900435,-0.65943953
15.11331661,0.32927925,1.22798088,0.25619525

>  <Name>
Wogonin.pdb

>  <RI>
-7.16496e+08

>  <Rbt.Current_Directory>
/root/miniconda3/envs/rdock/share/rxdock-2013.1.1_148c5bd1-0/data/ligands/prepped_ligands/Wogonin

>  <Rbt.Executable>
rbdock/0.1.0

>  <Rbt.Library>
librxdock.so/0.1.0

>  <Rbt.Parameter_File>
/root/miniconda3/envs/rdock/share/rxdock-2013.1.1_148c5bd1-0/data/scripts/dock.prm

>  <Rbt.Receptor>
def.prm

>  <SCORE>
-14.2675

>  <SCORE.INTER>
-14.0408

>  <SCORE.INTER.CONST>
1

>  <SCORE.INTER.POLAR>
-0.71586

>  <SCORE.INTER.REPUL>
0.0446694

>  <SCORE.INTER.ROT>
2

>  <SCORE.INTER.VDW>
-19.2302

>  <SCORE.INTER.norm>
-0.668609

>  <SCORE.INTRA>
0.763951

>  <SCORE.INTRA.DIHEDRAL>
1.45994

>  <SCORE.INTRA.DIHEDRAL.0>
6.03438

>  <SCORE.INTRA.POLAR>
0

>  <SCORE.INTRA.POLAR.0>
0

>  <SCORE.INTRA.REPUL>
0

>  <SCORE.INTRA.REPUL.0>
0

>  <SCORE.INTRA.VDW>
0.0339822

>  <SCORE.INTRA.VDW.0>
0.298713

>  <SCORE.INTRA.norm>
0.0363786

>  <SCORE.RESTR>
0

>  <SCORE.RESTR.CAVITY>
0

>  <SCORE.RESTR.norm>
0

>  <SCORE.SYSTEM>
-0.990679

>  <SCORE.SYSTEM.CONST>
0

>  <SCORE.SYSTEM.DIHEDRAL>
0.0885161

>  <SCORE.SYSTEM.VDW>
-1.03494

>  <SCORE.SYSTEM.norm>
-0.0471752

>  <SCORE.heavy>
21

>  <SCORE.norm>
-0.679406

$$$$
Wogonin.pdb
  RxDock  02242101433D
librxdock.so/0.1.0
 23 25  0  0  0  0  0  0  0  0999 V2000
  -49.6822   -3.3648   15.2436 O   0  0  0  0  0  0
  -47.1508   -3.8477   16.0845 O   0  0  0  0  0  0
  -48.1528    0.7647   13.2184 O   0  0  0  0  0  0
  -45.1164   -2.0622   15.5165 O   0  0  0  0  0  0
  -50.6508   -0.0304   13.1122 O   0  0  0  0  0  0
  -48.9749   -1.2834   14.2098 C   0  0  0  0  0  0
  -48.7120   -2.4446   14.9343 C   0  0  0  0  0  0
  -50.9808   -3.1213   14.8229 C   0  0  0  0  0  0
  -47.4162   -2.7136   15.3759 C   0  0  0  0  0  0
  -50.3490   -1.0272   13.7540 C   0  0  0  0  0  0
  -47.9475   -0.3822   13.9226 C   0  0  0  0  0  0
  -51.3563   -2.0453   14.1150 C   0  0  0  0  0  0
  -51.9424   -4.1759   15.2044 C   0  0  0  0  0  0
  -46.3863   -1.8155   15.0917 C   0  0  0  0  0  0
  -46.6517   -0.6525   14.3664 C   0  0  0  0  0  0
  -51.5273   -5.2538   15.9897 C   0  0  0  0  0  0
  -53.2720   -4.0995   14.7822 C   0  0  0  0  0  0
  -52.4342   -6.2490   16.3507 C   0  0  0  0  0  0
  -54.1802   -5.0952   15.1433 C   0  0  0  0  0  0
  -53.7611   -6.1696   15.9275 C   0  0  0  0  0  0
  -47.8310   -4.0076   17.3278 C   0  0  0  0  0  0
  -49.0764    0.8281   12.9329 H   0  0  0  0  0  0
  -44.5449   -1.3181   15.2585 H   0  0  0  0  0  0
  1  7  1  0  0  0
  1  8  1  0  0  0
  2  9  1  0  0  0
  2 21  1  0  0  0
  3 11  1  0  0  0
  3 22  1  0  0  0
  4 14  1  0  0  0
  4 23  1  0  0  0
  5 10  2  0  0  0
  6  7  2  0  0  0
  6 10  1  0  0  0
  6 11  1  0  0  0
  7  9  1  0  0  0
  8 12  2  0  0  0
  8 13  1  0  0  0
  9 14  2  0  0  0
 10 12  1  0  0  0
 11 15  2  0  0  0
 13 16  2  0  0  0
 13 17  1  0  0  0
 14 15  1  0  0  0
 16 18  1  0  0  0
 17 19  2  0  0  0
 18 20  2  0  0  0
 19 20  1  0  0  0
M  END
>  <CHROM.0>
173.97652907,61.28860221,-59.93155842

>  <CHROM.1>
-60.82334469,-2.27995965,-177.85521152,3.64529193,-49.63790837,-2.76514719
14.97728572,-2.57119725,-0.22953942,-0.57189544

>  <Name>
Wogonin.pdb

>  <RI>
-7.16496e+08

>  <Rbt.Current_Directory>
/root/miniconda3/envs/rdock/share/rxdock-2013.1.1_148c5bd1-0/data/ligands/prepped_ligands/Wogonin

>  <Rbt.Executable>
rbdock/0.1.0

>  <Rbt.Library>
librxdock.so/0.1.0

>  <Rbt.Parameter_File>
/root/miniconda3/envs/rdock/share/rxdock-2013.1.1_148c5bd1-0/data/scripts/dock.prm

>  <Rbt.Receptor>
def.prm

>  <SCORE>
-12.0416

>  <SCORE.INTER>
-11.2899

>  <SCORE.INTER.CONST>
1

>  <SCORE.INTER.POLAR>
-0.538872

>  <SCORE.INTER.REPUL>
0.0675583

>  <SCORE.INTER.ROT>
2

>  <SCORE.INTER.VDW>
-17.1956

>  <SCORE.INTER.norm>
-0.537616

>  <SCORE.INTRA>
0.178368

>  <SCORE.INTRA.DIHEDRAL>
-2.343

>  <SCORE.INTRA.DIHEDRAL.0>
6.03438

>  <SCORE.INTRA.POLAR>
0

>  <SCORE.INTRA.POLAR.0>
0

>  <SCORE.INTRA.REPUL>
0

>  <SCORE.INTRA.REPUL.0>
0

>  <SCORE.INTRA.VDW>
1.34987

>  <SCORE.INTRA.VDW.0>
0.298713

>  <SCORE.INTRA.norm>
0.00849373

>  <SCORE.RESTR>
0

>  <SCORE.RESTR.CAVITY>
0

>  <SCORE.RESTR.norm>
0

>  <SCORE.SYSTEM>
-0.930075

>  <SCORE.SYSTEM.CONST>
0

>  <SCORE.SYSTEM.DIHEDRAL>
0.101505

>  <SCORE.SYSTEM.POLAR>
-0.000951393

>  <SCORE.SYSTEM.VDW>
-0.977593

>  <SCORE.SYSTEM.norm>
-0.0442893

>  <SCORE.heavy>
21

>  <SCORE.norm>
-0.573411

$$$$
Wogonin.pdb
  RxDock  02242101433D
librxdock.so/0.1.0
 23 25  0  0  0  0  0  0  0  0999 V2000
  -50.1527   -0.0646   15.0201 O   0  0  0  0  0  0
  -51.0340    0.7138   17.4626 O   0  0  0  0  0  0
  -50.7930   -4.6861   16.3331 O   0  0  0  0  0  0
  -51.7941   -1.1632   19.3463 O   0  0  0  0  0  0
  -49.8961   -3.9920   13.9673 O   0  0  0  0  0  0
  -50.4521   -2.3991   15.6216 C   0  0  0  0  0  0
  -50.5162   -1.0385   15.9163 C   0  0  0  0  0  0
  -49.6943   -0.4551   13.7711 C   0  0  0  0  0  0
  -50.9678   -0.6155   17.1668 C   0  0  0  0  0  0
  -49.9757   -2.8160   14.2946 C   0  0  0  0  0  0
  -50.8365   -3.3467   16.5726 C   0  0  0  0  0  0
  -49.5939   -1.7308   13.3682 C   0  0  0  0  0  0
  -49.3357    0.6711   12.8848 C   0  0  0  0  0  0
  -51.3525   -1.5590   18.1207 C   0  0  0  0  0  0
  -51.2870   -2.9217   17.8237 C   0  0  0  0  0  0
  -50.1857    1.7736   12.7717 C   0  0  0  0  0  0
  -48.1439    0.6391   12.1565 C   0  0  0  0  0  0
  -49.8477    2.8371   11.9361 C   0  0  0  0  0  0
  -47.8050    1.7033   11.3202 C   0  0  0  0  0  0
  -48.6568    2.8019   11.2103 C   0  0  0  0  0  0
  -50.0101    1.2410   18.3038 C   0  0  0  0  0  0
  -50.5450   -4.8595   15.4128 H   0  0  0  0  0  0
  -52.1305   -1.9387   19.8285 H   0  0  0  0  0  0
  1  7  1  0  0  0
  1  8  1  0  0  0
  2  9  1  0  0  0
  2 21  1  0  0  0
  3 11  1  0  0  0
  3 22  1  0  0  0
  4 14  1  0  0  0
  4 23  1  0  0  0
  5 10  2  0  0  0
  6  7  2  0  0  0
  6 10  1  0  0  0
  6 11  1  0  0  0
  7  9  1  0  0  0
  8 12  2  0  0  0
  8 13  1  0  0  0
  9 14  2  0  0  0
 10 12  1  0  0  0
 11 15  2  0  0  0
 13 16  2  0  0  0
 13 17  1  0  0  0
 14 15  1  0  0  0
 16 18  1  0  0  0
 17 19  2  0  0  0
 18 20  2  0  0  0
 19 20  1  0  0  0
M  END
>  <CHROM.0>
-56.44815586,61.36914160,178.16496380

>  <CHROM.1>
-103.45616401,-5.16523557,172.25752255,-45.42349866,-50.14368855,-0.73054079
15.11822593,0.43009696,1.23378797,0.16079448

>  <Name>
Wogonin.pdb

>  <RI>
-7.16496e+08

>  <Rbt.Current_Directory>
/root/miniconda3/envs/rdock/share/rxdock-2013.1.1_148c5bd1-0/data/ligands/prepped_ligands/Wogonin

>  <Rbt.Executable>
rbdock/0.1.0

>  <Rbt.Library>
librxdock.so/0.1.0

>  <Rbt.Parameter_File>
/root/miniconda3/envs/rdock/share/rxdock-2013.1.1_148c5bd1-0/data/scripts/dock.prm

>  <Rbt.Receptor>
def.prm

>  <SCORE>
-14.87

>  <SCORE.INTER>
-14.247

>  <SCORE.INTER.CONST>
1

>  <SCORE.INTER.POLAR>
-0.713906

>  <SCORE.INTER.REPUL>
0.0386708

>  <SCORE.INTER.ROT>
2

>  <SCORE.INTER.VDW>
-19.4131

>  <SCORE.INTER.norm>
-0.678431

>  <SCORE.INTRA>
0.386356

>  <SCORE.INTRA.DIHEDRAL>
1.10772

>  <SCORE.INTRA.DIHEDRAL.0>
6.03438

>  <SCORE.INTRA.POLAR>
0

>  <SCORE.INTRA.POLAR.0>
0

>  <SCORE.INTRA.REPUL>
0

>  <SCORE.INTRA.REPUL.0>
0

>  <SCORE.INTRA.VDW>
-0.167505

>  <SCORE.INTRA.VDW.0>
0.298713

>  <SCORE.INTRA.norm>
0.0183979

>  <SCORE.RESTR>
0

>  <SCORE.RESTR.CAVITY>
0

>  <SCORE.RESTR.norm>
0

>  <SCORE.SYSTEM>
-1.00927

>  <SCORE.SYSTEM.CONST>
0

>  <SCORE.SYSTEM.DIHEDRAL>
0.04767

>  <SCORE.SYSTEM.VDW>
-1.03311

>  <SCORE.SYSTEM.norm>
-0.0480606

>  <SCORE.heavy>
21

>  <SCORE.norm>
-0.708094

$$$$
Wogonin.pdb
  RxDock  02242101433D
librxdock.so/0.1.0
 23 25  0  0  0  0  0  0  0  0999 V2000
  -53.1836   -4.3818   17.2426 O   0  0  0  0  0  0
  -53.0222   -3.9472   19.9134 O   0  0  0  0  0  0
  -50.6827   -0.2982   16.4923 O   0  0  0  0  0  0
  -51.7124   -1.7193   20.8983 O   0  0  0  0  0  0
  -51.5285   -1.8267   14.5349 O   0  0  0  0  0  0
  -51.9348   -2.3447   16.8043 C   0  0  0  0  0  0
  -52.5224   -3.2597   17.6758 C   0  0  0  0  0  0
  -53.2764   -4.6073   15.8776 C   0  0  0  0  0  0
  -52.4504   -3.0564   19.0542 C   0  0  0  0  0  0
  -52.0230   -2.5862   15.3567 C   0  0  0  0  0  0
  -51.2729   -1.2201   17.3017 C   0  0  0  0  0  0
  -52.7471   -3.8048   14.9417 C   0  0  0  0  0  0
  -54.0029   -5.8435   15.5220 C   0  0  0  0  0  0
  -51.7905   -1.9335   19.5560 C   0  0  0  0  0  0
  -51.2029   -1.0176   18.6812 C   0  0  0  0  0  0
  -53.8529   -6.9941   16.2994 C   0  0  0  0  0  0
  -54.8443   -5.8670   14.4070 C   0  0  0  0  0  0
  -54.5386   -8.1609   15.9649 C   0  0  0  0  0  0
  -55.5311   -7.0344   14.0718 C   0  0  0  0  0  0
  -55.3781   -8.1809   14.8508 C   0  0  0  0  0  0
  -52.3647   -5.2023   20.0763 C   0  0  0  0  0  0
  -50.7808   -0.5496   15.5619 H   0  0  0  0  0  0
  -52.1437   -2.4573   21.3634 H   0  0  0  0  0  0
  1  7  1  0  0  0
  1  8  1  0  0  0
  2  9  1  0  0  0
  2 21  1  0  0  0
  3 11  1  0  0  0
  3 22  1  0  0  0
  4 14  1  0  0  0
  4 23  1  0  0  0
  5 10  2  0  0  0
  6  7  2  0  0  0
  6 10  1  0  0  0
  6 11  1  0  0  0
  7  9  1  0  0  0
  8 12  2  0  0  0
  8 13  1  0  0  0
  9 14  2  0  0  0
 10 12  1  0  0  0
 11 15  2  0  0  0
 13 16  2  0  0  0
 13 17  1  0  0  0
 14 15  1  0  0  0
 16 18  1  0  0  0
 17 19  2  0  0  0
 18 20  2  0  0  0
 19 20  1  0  0  0
M  END
>  <CHROM.0>
-62.77413152,63.48608419,179.99872585

>  <CHROM.1>
73.29014542,-0.95531315,1.75149660,-37.70526723,-52.80658045,-3.90141997
17.00327732,2.75583642,-1.06884260,-1.42682958

>  <Name>
Wogonin.pdb

>  <RI>
-7.16496e+08

>  <Rbt.Current_Directory>
/root/miniconda3/envs/rdock/share/rxdock-2013.1.1_148c5bd1-0/data/ligands/prepped_ligands/Wogonin

>  <Rbt.Executable>
rbdock/0.1.0

>  <Rbt.Library>
librxdock.so/0.1.0

>  <Rbt.Parameter_File>
/root/miniconda3/envs/rdock/share/rxdock-2013.1.1_148c5bd1-0/data/scripts/dock.prm

>  <Rbt.Receptor>
def.prm

>  <SCORE>
-14.6197

>  <SCORE.INTER>
-13.0978

>  <SCORE.INTER.CONST>
1

>  <SCORE.INTER.POLAR>
-0.549022

>  <SCORE.INTER.REPUL>
0

>  <SCORE.INTER.ROT>
2

>  <SCORE.INTER.VDW>
-18.6311

>  <SCORE.INTER.norm>
-0.623706

>  <SCORE.INTRA>
-0.485365

>  <SCORE.INTRA.DIHEDRAL>
0.208804

>  <SCORE.INTRA.DIHEDRAL.0>
6.03438

>  <SCORE.INTRA.POLAR>
-0.0726964

>  <SCORE.INTRA.POLAR.0>
0

>  <SCORE.INTRA.REPUL>
0

>  <SCORE.INTRA.REPUL.0>
0

>  <SCORE.INTRA.VDW>
-0.3426

>  <SCORE.INTRA.VDW.0>
0.298713

>  <SCORE.INTRA.norm>
-0.0231126

>  <SCORE.RESTR>
0

>  <SCORE.RESTR.CAVITY>
0

>  <SCORE.RESTR.norm>
0

>  <SCORE.SYSTEM>
-1.03649

>  <SCORE.SYSTEM.CONST>
0

>  <SCORE.SYSTEM.DIHEDRAL>
0.081005

>  <SCORE.SYSTEM.POLAR>
-0.00198569

>  <SCORE.SYSTEM.VDW>
-1.07025

>  <SCORE.SYSTEM.norm>
-0.0493569

>  <SCORE.heavy>
21

>  <SCORE.norm>
-0.696175

$$$$
Wogonin.pdb
  RxDock  02242101433D
librxdock.so/0.1.0
 23 25  0  0  0  0  0  0  0  0999 V2000
  -50.2817   -0.0589   15.1562 O   0  0  0  0  0  0
  -51.0602    0.8473   17.5895 O   0  0  0  0  0  0
  -51.4423   -4.5591   16.5324 O   0  0  0  0  0  0
  -52.0240   -0.9054   19.4997 O   0  0  0  0  0  0
  -50.4797   -4.0035   14.1559 O   0  0  0  0  0  0
  -50.8444   -2.3357   15.7896 C   0  0  0  0  0  0
  -50.7514   -0.9729   16.0661 C   0  0  0  0  0  0
  -49.8751   -0.5158   13.9118 C   0  0  0  0  0  0
  -51.1476   -0.4846   17.3115 C   0  0  0  0  0  0
  -50.4231   -2.8218   14.4675 C   0  0  0  0  0  0
  -51.3315   -3.2205   16.7540 C   0  0  0  0  0  0
  -49.9226   -1.7998   13.5259 C   0  0  0  0  0  0
  -49.3928    0.5503   13.0099 C   0  0  0  0  0  0
  -51.6345   -1.3652   18.2787 C   0  0  0  0  0  0
  -51.7264   -2.7302   18.0000 C   0  0  0  0  0  0
  -48.1548    0.4261   12.3753 C   0  0  0  0  0  0
  -50.1735    1.6872   12.7867 C   0  0  0  0  0  0
  -47.6993    1.4314   11.5236 C   0  0  0  0  0  0
  -49.7182    2.6935   11.9341 C   0  0  0  0  0  0
  -48.4814    2.5653   11.3028 C   0  0  0  0  0  0
  -49.8475    1.3059   18.1836 C   0  0  0  0  0  0
  -51.7963   -5.0057   17.3159 H   0  0  0  0  0  0
  -52.0359    0.0675   19.4837 H   0  0  0  0  0  0
  1  7  1  0  0  0
  1  8  1  0  0  0
  2  9  1  0  0  0
  2 21  1  0  0  0
  3 11  1  0  0  0
  3 22  1  0  0  0
  4 14  1  0  0  0
  4 23  1  0  0  0
  5 10  2  0  0  0
  6  7  2  0  0  0
  6 10  1  0  0  0
  6 11  1  0  0  0
  7  9  1  0  0  0
  8 12  2  0  0  0
  8 13  1  0  0  0
  9 14  2  0  0  0
 10 12  1  0  0  0
 11 15  2  0  0  0
 13 16  2  0  0  0
 13 17  1  0  0  0
 14 15  1  0  0  0
 16 18  1  0  0  0
 17 19  2  0  0  0
 18 20  2  0  0  0
 19 20  1  0  0  0
M  END
>  <CHROM.0>
-54.84570952,65.84926118,177.45341007

>  <CHROM.1>
-91.00655795,179.85388436,9.14015985,128.60311248,-50.34246383,-0.71304436
15.25454702,0.11695375,1.20059739,0.45232385

>  <Name>
Wogonin.pdb

>  <RI>
-7.16496e+08

>  <Rbt.Current_Directory>
/root/miniconda3/envs/rdock/share/rxdock-2013.1.1_148c5bd1-0/data/ligands/prepped_ligands/Wogonin

>  <Rbt.Executable>
rbdock/0.1.0

>  <Rbt.Library>
librxdock.so/0.1.0

>  <Rbt.Parameter_File>
/root/miniconda3/envs/rdock/share/rxdock-2013.1.1_148c5bd1-0/data/scripts/dock.prm

>  <Rbt.Receptor>
def.prm

>  <SCORE>
-14.6916

>  <SCORE.INTER>
-14.0309

>  <SCORE.INTER.CONST>
1

>  <SCORE.INTER.POLAR>
-0.758666

>  <SCORE.INTER.REPUL>
0.0457056

>  <SCORE.INTER.ROT>
2

>  <SCORE.INTER.VDW>
-19.08

>  <SCORE.INTER.norm>
-0.66814

>  <SCORE.INTRA>
0.323912

>  <SCORE.INTRA.DIHEDRAL>
1.85712

>  <SCORE.INTRA.DIHEDRAL.0>
6.03438

>  <SCORE.INTRA.POLAR>
-0.0240278

>  <SCORE.INTRA.POLAR.0>
0

>  <SCORE.INTRA.REPUL>
0

>  <SCORE.INTRA.REPUL.0>
0

>  <SCORE.INTRA.VDW>
-0.522955

>  <SCORE.INTRA.VDW.0>
0.298713

>  <SCORE.INTRA.norm>
0.0154244

>  <SCORE.RESTR>
0

>  <SCORE.RESTR.CAVITY>
0

>  <SCORE.RESTR.norm>
0

>  <SCORE.SYSTEM>
-0.984611

>  <SCORE.SYSTEM.CONST>
0

>  <SCORE.SYSTEM.DIHEDRAL>
0.247158

>  <SCORE.SYSTEM.VDW>
-1.10819

>  <SCORE.SYSTEM.norm>
-0.0468863

>  <SCORE.heavy>
21

>  <SCORE.norm>
-0.699602

$$$$
Wogonin.pdb
  RxDock  02242101433D
librxdock.so/0.1.0
 23 25  0  0  0  0  0  0  0  0999 V2000
  -47.7861   -0.6623   14.4577 O   0  0  0  0  0  0
  -45.7556   -0.6854   16.2534 O   0  0  0  0  0  0
  -49.0742   -5.0888   15.9541 O   0  0  0  0  0  0
  -45.3587   -2.8732   17.8981 O   0  0  0  0  0  0
  -50.3589   -3.7970   14.0663 O   0  0  0  0  0  0
  -48.4784   -2.8807   15.1652 C   0  0  0  0  0  0
  -47.6352   -1.7742   15.2480 C   0  0  0  0  0  0
  -48.8183   -0.6459   13.5319 C   0  0  0  0  0  0
  -46.5845   -1.7643   16.1659 C   0  0  0  0  0  0
  -49.5797   -2.8623   14.1912 C   0  0  0  0  0  0
  -48.2782   -3.9852   15.9961 C   0  0  0  0  0  0
  -49.6974   -1.6451   13.3629 C   0  0  0  0  0  0
  -48.8926    0.5983   12.7387 C   0  0  0  0  0  0
  -46.3803   -2.8661   16.9980 C   0  0  0  0  0  0
  -47.2257   -3.9739   16.9131 C   0  0  0  0  0  0
  -47.8913    0.9020   11.8136 C   0  0  0  0  0  0
  -49.9657    1.4765   12.9097 C   0  0  0  0  0  0
  -47.9611    2.0755   11.0644 C   0  0  0  0  0  0
  -50.0362    2.6511   12.1599 C   0  0  0  0  0  0
  -49.0340    2.9502   11.2375 C   0  0  0  0  0  0
  -46.1831    0.3932   17.0828 C   0  0  0  0  0  0
  -49.6149   -5.0883   15.1503 H   0  0  0  0  0  0
  -44.8422   -2.0545   17.7989 H   0  0  0  0  0  0
  1  7  1  0  0  0
  1  8  1  0  0  0
  2  9  1  0  0  0
  2 21  1  0  0  0
  3 11  1  0  0  0
  3 22  1  0  0  0
  4 14  1  0  0  0
  4 23  1  0  0  0
  5 10  2  0  0  0
  6  7  2  0  0  0
  6 10  1  0  0  0
  6 11  1  0  0  0
  7  9  1  0  0  0
  8 12  2  0  0  0
  8 13  1  0  0  0
  9 14  2  0  0  0
 10 12  1  0  0  0
 11 15  2  0  0  0
 13 16  2  0  0  0
 13 17  1  0  0  0
 14 15  1  0  0  0
 16 18  1  0  0  0
 17 19  2  0  0  0
 18 20  2  0  0  0
 19 20  1  0  0  0
M  END
>  <CHROM.0>
63.91931666,-59.90645504,-63.09078692

>  <CHROM.1>
84.98892144,14.46697606,-2.87018675,68.24303341,-48.09813338,-1.22272514
14.61473644,-1.90897734,0.69193223,2.62141610

>  <Name>
Wogonin.pdb

>  <RI>
-7.16496e+08

>  <Rbt.Current_Directory>
/root/miniconda3/envs/rdock/share/rxdock-2013.1.1_148c5bd1-0/data/ligands/prepped_ligands/Wogonin

>  <Rbt.Executable>
rbdock/0.1.0

>  <Rbt.Library>
librxdock.so/0.1.0

>  <Rbt.Parameter_File>
/root/miniconda3/envs/rdock/share/rxdock-2013.1.1_148c5bd1-0/data/scripts/dock.prm

>  <Rbt.Receptor>
def.prm

>  <SCORE>
-16.4508

>  <SCORE.INTER>
-15.864

>  <SCORE.INTER.CONST>
1

>  <SCORE.INTER.POLAR>
-0.380041

>  <SCORE.INTER.REPUL>
0

>  <SCORE.INTER.ROT>
2

>  <SCORE.INTER.VDW>
-21.9718

>  <SCORE.INTER.norm>
-0.755428

>  <SCORE.INTRA>
0.43739

>  <SCORE.INTRA.DIHEDRAL>
3.15017

>  <SCORE.INTRA.DIHEDRAL.0>
6.03438

>  <SCORE.INTRA.POLAR>
-0.0395811

>  <SCORE.INTRA.POLAR.0>
0

>  <SCORE.INTRA.REPUL>
0

>  <SCORE.INTRA.REPUL.0>
0

>  <SCORE.INTRA.VDW>
-1.00312

>  <SCORE.INTRA.VDW.0>
0.298713

>  <SCORE.INTRA.norm>
0.0208281

>  <SCORE.RESTR>
0

>  <SCORE.RESTR.CAVITY>
0

>  <SCORE.RESTR.norm>
0

>  <SCORE.SYSTEM>
-1.02419

>  <SCORE.SYSTEM.CONST>
0

>  <SCORE.SYSTEM.DIHEDRAL>
0.0611627

>  <SCORE.SYSTEM.VDW>
-1.05477

>  <SCORE.SYSTEM.norm>
-0.0487711

>  <SCORE.heavy>
21

>  <SCORE.norm>
-0.783371

$$$$
Wogonin.pdb
  RxDock  02242101433D
librxdock.so/0.1.0
 23 25  0  0  0  0  0  0  0  0999 V2000
  -46.7889   -1.8083   18.2185 O   0  0  0  0  0  0
  -44.0920   -1.5465   18.2990 O   0  0  0  0  0  0
  -47.2070    2.9855   18.7996 O   0  0  0  0  0  0
  -42.9306    0.9420   18.6267 O   0  0  0  0  0  0
  -49.2811    1.3964   18.5629 O   0  0  0  0  0  0
  -47.0613    0.5881   18.5088 C   0  0  0  0  0  0
  -46.2666   -0.5499   18.3837 C   0  0  0  0  0  0
  -48.1677   -1.9511   18.1832 C   0  0  0  0  0  0
  -44.8764   -0.4381   18.4212 C   0  0  0  0  0  0
  -48.5235    0.4411   18.4621 C   0  0  0  0  0  0
  -46.4748    1.8447   18.6737 C   0  0  0  0  0  0
  -49.0355   -0.9331   18.2860 C   0  0  0  0  0  0
  -48.6217   -3.3445   17.9968 C   0  0  0  0  0  0
  -44.2857    0.8156   18.5865 C   0  0  0  0  0  0
  -45.0836    1.9544   18.7122 C   0  0  0  0  0  0
  -49.7416   -3.8161   18.6854 C   0  0  0  0  0  0
  -47.9333   -4.1968   17.1299 C   0  0  0  0  0  0
  -50.1710   -5.1306   18.5095 C   0  0  0  0  0  0
  -48.3628   -5.5126   16.9532 C   0  0  0  0  0  0
  -49.4814   -5.9790   17.6429 C   0  0  0  0  0  0
  -43.6080   -1.8557   16.9936 C   0  0  0  0  0  0
  -48.1510    2.7784   18.8669 H   0  0  0  0  0  0
  -42.6955    1.8796   18.5136 H   0  0  0  0  0  0
  1  7  1  0  0  0
  1  8  1  0  0  0
  2  9  1  0  0  0
  2 21  1  0  0  0
  3 11  1  0  0  0
  3 22  1  0  0  0
  4 14  1  0  0  0
  4 23  1  0  0  0
  5 10  2  0  0  0
  6  7  2  0  0  0
  6 10  1  0  0  0
  6 11  1  0  0  0
  7  9  1  0  0  0
  8 12  2  0  0  0
  8 13  1  0  0  0
  9 14  2  0  0  0
 10 12  1  0  0  0
 11 15  2  0  0  0
 13 16  2  0  0  0
 13 17  1  0  0  0
 14 15  1  0  0  0
 16 18  1  0  0  0
 17 19  2  0  0  0
 18 20  2  0  0  0
 19 20  1  0  0  0
M  END
>  <CHROM.0>
-66.83936466,177.94575262,-177.83878654

>  <CHROM.1>
94.98871072,6.94825052,165.44730775,141.17811854,-46.96712682,-1.16186806
18.22492940,-2.16827303,0.08715511,0.17751308

>  <Name>
Wogonin.pdb

>  <RI>
-7.16496e+08

>  <Rbt.Current_Directory>
/root/miniconda3/envs/rdock/share/rxdock-2013.1.1_148c5bd1-0/data/ligands/prepped_ligands/Wogonin

>  <Rbt.Executable>
rbdock/0.1.0

>  <Rbt.Library>
librxdock.so/0.1.0

>  <Rbt.Parameter_File>
/root/miniconda3/envs/rdock/share/rxdock-2013.1.1_148c5bd1-0/data/scripts/dock.prm

>  <Rbt.Receptor>
def.prm

>  <SCORE>
-11.4979

>  <SCORE.INTER>
-10.7406

>  <SCORE.INTER.CONST>
1

>  <SCORE.INTER.POLAR>
-1.33838

>  <SCORE.INTER.REPUL>
0

>  <SCORE.INTER.ROT>
2

>  <SCORE.INTER.VDW>
-13.5901

>  <SCORE.INTER.norm>
-0.511455

>  <SCORE.INTRA>
0.254506

>  <SCORE.INTRA.DIHEDRAL>
1.02977

>  <SCORE.INTRA.DIHEDRAL.0>
6.03438

>  <SCORE.INTRA.POLAR>
0

>  <SCORE.INTRA.POLAR.0>
0

>  <SCORE.INTRA.REPUL>
0

>  <SCORE.INTRA.REPUL.0>
0

>  <SCORE.INTRA.VDW>
-0.260379

>  <SCORE.INTRA.VDW.0>
0.298713

>  <SCORE.INTRA.norm>
0.0121193

>  <SCORE.RESTR>
0

>  <SCORE.RESTR.CAVITY>
0

>  <SCORE.RESTR.norm>
0

>  <SCORE.SYSTEM>
-1.01182

>  <SCORE.SYSTEM.CONST>
0

>  <SCORE.SYSTEM.DIHEDRAL>
0.14989

>  <SCORE.SYSTEM.POLAR>
-0.00697363

>  <SCORE.SYSTEM.VDW>
-1.06306

>  <SCORE.SYSTEM.norm>
-0.0481821

>  <SCORE.heavy>
21

>  <SCORE.norm>
-0.547518

$$$$
Wogonin.pdb
  RxDock  02242101433D
librxdock.so/0.1.0
 23 25  0  0  0  0  0  0  0  0999 V2000
  -50.1030    0.0440   15.2860 O   0  0  0  0  0  0
  -49.7400    0.7260   17.8843 O   0  0  0  0  0  0
  -52.6041   -3.8506   16.7247 O   0  0  0  0  0  0
  -50.7841   -0.8432   19.9084 O   0  0  0  0  0  0
  -52.1849   -3.2847   14.1974 O   0  0  0  0  0  0
  -51.3642   -1.9244   15.9465 C   0  0  0  0  0  0
  -50.6424   -0.7713   16.2494 C   0  0  0  0  0  0
  -50.2786   -0.3020   13.9548 C   0  0  0  0  0  0
  -50.4445   -0.4009   17.5798 C   0  0  0  0  0  0
  -51.5604   -2.2886   14.5357 C   0  0  0  0  0  0
  -51.8918   -2.7163   16.9686 C   0  0  0  0  0  0
  -50.9581   -1.3812   13.5380 C   0  0  0  0  0  0
  -49.6630    0.6452   13.0028 C   0  0  0  0  0  0
  -50.9694   -1.1896   18.6047 C   0  0  0  0  0  0
  -51.6917   -2.3447   18.2993 C   0  0  0  0  0  0
  -48.3856    0.3989   12.4944 C   0  0  0  0  0  0
  -50.3562    1.7914   12.6059 C   0  0  0  0  0  0
  -47.8043    1.2920   11.5955 C   0  0  0  0  0  0
  -49.7749    2.6855   11.7061 C   0  0  0  0  0  0
  -48.4993    2.4355   11.2012 C   0  0  0  0  0  0
  -48.3183    0.6149   17.9027 C   0  0  0  0  0  0
  -52.9588   -4.2139   17.5497 H   0  0  0  0  0  0
  -50.3934    0.0472   19.9480 H   0  0  0  0  0  0
  1  7  1  0  0  0
  1  8  1  0  0  0
  2  9  1  0  0  0
  2 21  1  0  0  0
  3 11  1  0  0  0
  3 22  1  0  0  0
  4 14  1  0  0  0
  4 23  1  0  0  0
  5 10  2  0  0  0
  6  7  2  0  0  0
  6 10  1  0  0  0
  6 11  1  0  0  0
  7  9  1  0  0  0
  8 12  2  0  0  0
  8 13  1  0  0  0
  9 14  2  0  0  0
 10 12  1  0  0  0
 11 15  2  0  0  0
 13 16  2  0  0  0
 13 17  1  0  0  0
 14 15  1  0  0  0
 16 18  1  0  0  0
 17 19  2  0  0  0
 18 20  2  0  0  0
 19 20  1  0  0  0
M  END
>  <CHROM.0>
63.86259775,67.11658944,176.47261432

>  <CHROM.1>
-82.79983784,-174.46362652,9.04411097,95.35106279,-50.39984466,-0.54267568
15.35479692,-1.00143044,0.94995155,1.61480296

>  <Name>
Wogonin.pdb

>  <RI>
-7.16496e+08

>  <Rbt.Current_Directory>
/root/miniconda3/envs/rdock/share/rxdock-2013.1.1_148c5bd1-0/data/ligands/prepped_ligands/Wogonin

>  <Rbt.Executable>
rbdock/0.1.0

>  <Rbt.Library>
librxdock.so/0.1.0

>  <Rbt.Parameter_File>
/root/miniconda3/envs/rdock/share/rxdock-2013.1.1_148c5bd1-0/data/scripts/dock.prm

>  <Rbt.Receptor>
def.prm

>  <SCORE>
-13.2241

>  <SCORE.INTER>
-13.0622

>  <SCORE.INTER.CONST>
1

>  <SCORE.INTER.POLAR>
-0.0716878

>  <SCORE.INTER.REPUL>
0.000155111

>  <SCORE.INTER.ROT>
2

>  <SCORE.INTER.VDW>
-20.2193

>  <SCORE.INTER.norm>
-0.622011

>  <SCORE.INTRA>
0.795224

>  <SCORE.INTRA.DIHEDRAL>
3.6192

>  <SCORE.INTRA.DIHEDRAL.0>
6.03438

>  <SCORE.INTRA.POLAR>
-0.0484593

>  <SCORE.INTRA.POLAR.0>
0

>  <SCORE.INTRA.REPUL>
0

>  <SCORE.INTRA.REPUL.0>
0

>  <SCORE.INTRA.VDW>
-0.849614

>  <SCORE.INTRA.VDW.0>
0.298713

>  <SCORE.INTRA.norm>
0.0378678

>  <SCORE.RESTR>
0.00327141

>  <SCORE.RESTR.CAVITY>
0.00327141

>  <SCORE.RESTR.norm>
0.000155781

>  <SCORE.SYSTEM>
-0.960309

>  <SCORE.SYSTEM.CONST>
0

>  <SCORE.SYSTEM.DIHEDRAL>
0.314572

>  <SCORE.SYSTEM.VDW>
-1.1176

>  <SCORE.SYSTEM.norm>
-0.045729

>  <SCORE.heavy>
21

>  <SCORE.norm>
-0.629717

$$$$
Wogonin.pdb
  RxDock  02242101433D
librxdock.so/0.1.0
 23 25  0  0  0  0  0  0  0  0999 V2000
  -48.1199   -3.1768   15.6693 O   0  0  0  0  0  0
  -49.3936   -5.3543   16.6615 O   0  0  0  0  0  0
  -52.2305   -1.8559   13.4669 O   0  0  0  0  0  0
  -52.0591   -5.8095   16.0808 O   0  0  0  0  0  0
  -50.0148   -0.4613   13.2956 O   0  0  0  0  0  0
  -50.1501   -2.4645   14.5415 C   0  0  0  0  0  0
  -49.4426   -3.3536   15.3485 C   0  0  0  0  0  0
  -47.4596   -2.0690   15.1599 C   0  0  0  0  0  0
  -50.0787   -4.4802   15.8707 C   0  0  0  0  0  0
  -49.4554   -1.2838   14.0078 C   0  0  0  0  0  0
  -51.4962   -2.6942   14.2488 C   0  0  0  0  0  0
  -48.0330   -1.1407   14.3792 C   0  0  0  0  0  0
  -46.0439   -1.9732   15.5708 C   0  0  0  0  0  0
  -51.4237   -4.7141   15.5805 C   0  0  0  0  0  0
  -52.1307   -3.8226   14.7713 C   0  0  0  0  0  0
  -45.1148   -1.3362   14.7451 C   0  0  0  0  0  0
  -45.6279   -2.5187   16.7879 C   0  0  0  0  0  0
  -43.7787   -1.2449   15.1325 C   0  0  0  0  0  0
  -44.2908   -2.4274   17.1762 C   0  0  0  0  0  0
  -43.3667   -1.7905   16.3485 C   0  0  0  0  0  0
  -49.5419   -5.2036   18.0719 C   0  0  0  0  0  0
  -53.1533   -2.1482   13.4273 H   0  0  0  0  0  0
  -52.9541   -5.8582   15.7020 H   0  0  0  0  0  0
  1  7  1  0  0  0
  1  8  1  0  0  0
  2  9  1  0  0  0
  2 21  1  0  0  0
  3 11  1  0  0  0
  3 22  1  0  0  0
  4 14  1  0  0  0
  4 23  1  0  0  0
  5 10  2  0  0  0
  6  7  2  0  0  0
  6 10  1  0  0  0
  6 11  1  0  0  0
  7  9  1  0  0  0
  8 12  2  0  0  0
  8 13  1  0  0  0
  9 14  2  0  0  0
 10 12  1  0  0  0
 11 15  2  0  0  0
 13 16  2  0  0  0
 13 17  1  0  0  0
 14 15  1  0  0  0
 16 18  1  0  0  0
 17 19  2  0  0  0
 18 20  2  0  0  0
 19 20  1  0  0  0
M  END
>  <CHROM.0>
58.27409558,-63.28014503,-55.42558214

>  <CHROM.1>
97.69108581,-176.21129510,-174.12483708,151.49385379,-48.64508309,-2.86838337
15.38186110,-0.15833127,0.27498834,2.45434340

>  <Name>
Wogonin.pdb

>  <RI>
-7.16496e+08

>  <Rbt.Current_Directory>
/root/miniconda3/envs/rdock/share/rxdock-2013.1.1_148c5bd1-0/data/ligands/prepped_ligands/Wogonin

>  <Rbt.Executable>
rbdock/0.1.0

>  <Rbt.Library>
librxdock.so/0.1.0

>  <Rbt.Parameter_File>
/root/miniconda3/envs/rdock/share/rxdock-2013.1.1_148c5bd1-0/data/scripts/dock.prm

>  <Rbt.Receptor>
def.prm

>  <SCORE>
-17.0992

>  <SCORE.INTER>
-16.4302

>  <SCORE.INTER.CONST>
1

>  <SCORE.INTER.POLAR>
-1.91694

>  <SCORE.INTER.REPUL>
0

>  <SCORE.INTER.ROT>
2

>  <SCORE.INTER.VDW>
-17.3126

>  <SCORE.INTER.norm>
-0.78239

>  <SCORE.INTRA>
0.223134

>  <SCORE.INTRA.DIHEDRAL>
-0.11994

>  <SCORE.INTRA.DIHEDRAL.0>
6.03438

>  <SCORE.INTRA.POLAR>
0

>  <SCORE.INTRA.POLAR.0>
0

>  <SCORE.INTRA.REPUL>
0

>  <SCORE.INTRA.REPUL.0>
0

>  <SCORE.INTRA.VDW>
0.283104

>  <SCORE.INTRA.VDW.0>
0.298713

>  <SCORE.INTRA.norm>
0.0106254

>  <SCORE.RESTR>
0.130479

>  <SCORE.RESTR.CAVITY>
0.130479

>  <SCORE.RESTR.norm>
0.00621331

>  <SCORE.SYSTEM>
-1.02265

>  <SCORE.SYSTEM.CONST>
0

>  <SCORE.SYSTEM.DIHEDRAL>
0.109471

>  <SCORE.SYSTEM.POLAR>
-0.0107136

>  <SCORE.SYSTEM.VDW>
-1.04096

>  <SCORE.SYSTEM.norm>
-0.0486976

>  <SCORE.heavy>
21

>  <SCORE.norm>
-0.814249

$$$$
Wogonin.pdb
  RxDock  02242101433D
librxdock.so/0.1.0
 23 25  0  0  0  0  0  0  0  0999 V2000
  -51.0085   -4.3875   16.1086 O   0  0  0  0  0  0
  -48.7978   -4.9110   17.5875 O   0  0  0  0  0  0
  -48.7722   -0.5061   14.2576 O   0  0  0  0  0  0
  -46.5788   -3.2679   17.4283 O   0  0  0  0  0  0
  -51.2115   -1.1972   13.5827 O   0  0  0  0  0  0
  -49.9396   -2.4294   15.1471 C   0  0  0  0  0  0
  -49.9365   -3.5386   15.9909 C   0  0  0  0  0  0
  -52.1455   -4.1223   15.3606 C   0  0  0  0  0  0
  -48.8089   -3.8274   16.7601 C   0  0  0  0  0  0
  -51.1401   -2.1511   14.3454 C   0  0  0  0  0  0
  -48.8188   -1.6001   15.0664 C   0  0  0  0  0  0
  -52.2669   -3.0917   14.5102 C   0  0  0  0  0  0
  -53.2354   -5.0996   15.5592 C   0  0  0  0  0  0
  -47.6867   -3.0011   16.6832 C   0  0  0  0  0  0
  -47.6920   -1.8900   15.8378 C   0  0  0  0  0  0
  -52.9703   -6.3358   16.1529 C   0  0  0  0  0  0
  -54.5367   -4.7914   15.1549 C   0  0  0  0  0  0
  -53.9983   -7.2583   16.3412 C   0  0  0  0  0  0
  -55.5661   -5.7143   15.3433 C   0  0  0  0  0  0
  -55.2967   -6.9473   15.9364 C   0  0  0  0  0  0
  -48.6199   -6.1882   16.9784 C   0  0  0  0  0  0
  -49.6286   -0.3640   13.8274 H   0  0  0  0  0  0
  -45.9190   -2.5685   17.2783 H   0  0  0  0  0  0
  1  7  1  0  0  0
  1  8  1  0  0  0
  2  9  1  0  0  0
  2 21  1  0  0  0
  3 11  1  0  0  0
  3 22  1  0  0  0
  4 14  1  0  0  0
  4 23  1  0  0  0
  5 10  2  0  0  0
  6  7  2  0  0  0
  6 10  1  0  0  0
  6 11  1  0  0  0
  7  9  1  0  0  0
  8 12  2  0  0  0
  8 13  1  0  0  0
  9 14  2  0  0  0
 10 12  1  0  0  0
 11 15  2  0  0  0
 13 16  2  0  0  0
 13 17  1  0  0  0
 14 15  1  0  0  0
 16 18  1  0  0  0
 17 19  2  0  0  0
 18 20  2  0  0  0
 19 20  1  0  0  0
M  END
>  <CHROM.0>
-171.72877494,-64.53022026,59.19133412

>  <CHROM.1>
76.56168316,4.58993583,-177.35152889,-16.32917342,-50.80167652,-3.87970422
15.73514971,-2.73085965,-0.32975806,-0.56293887

>  <Name>
Wogonin.pdb

>  <RI>
-7.16496e+08

>  <Rbt.Current_Directory>
/root/miniconda3/envs/rdock/share/rxdock-2013.1.1_148c5bd1-0/data/ligands/prepped_ligands/Wogonin

>  <Rbt.Executable>
rbdock/0.1.0

>  <Rbt.Library>
librxdock.so/0.1.0

>  <Rbt.Parameter_File>
/root/miniconda3/envs/rdock/share/rxdock-2013.1.1_148c5bd1-0/data/scripts/dock.prm

>  <Rbt.Receptor>
def.prm

>  <SCORE>
-15.6235

>  <SCORE.INTER>
-14.5342

>  <SCORE.INTER.CONST>
1

>  <SCORE.INTER.POLAR>
-1.29074

>  <SCORE.INTER.REPUL>
0

>  <SCORE.INTER.ROT>
2

>  <SCORE.INTER.VDW>
-17.5457

>  <SCORE.INTER.norm>
-0.692105

>  <SCORE.INTRA>
-0.14914

>  <SCORE.INTRA.DIHEDRAL>
-1.05204

>  <SCORE.INTRA.DIHEDRAL.0>
6.03438

>  <SCORE.INTRA.POLAR>
0

>  <SCORE.INTRA.POLAR.0>
0

>  <SCORE.INTRA.REPUL>
0

>  <SCORE.INTRA.REPUL.0>
0

>  <SCORE.INTRA.VDW>
0.376879

>  <SCORE.INTRA.VDW.0>
0.298713

>  <SCORE.INTRA.norm>
-0.0071019

>  <SCORE.RESTR>
0

>  <SCORE.RESTR.CAVITY>
0

>  <SCORE.RESTR.norm>
0

>  <SCORE.SYSTEM>
-0.940191

>  <SCORE.SYSTEM.CONST>
0

>  <SCORE.SYSTEM.DIHEDRAL>
0.263524

>  <SCORE.SYSTEM.VDW>
-1.07195

>  <SCORE.SYSTEM.norm>
-0.044771

>  <SCORE.heavy>
21

>  <SCORE.norm>
-0.743978

$$$$
