Untitled
  xed2sdf_05210316543D
 
 52 55  0  0  1  0  0  0  0  0999 V2000
  -47.3807  -13.4923   22.2089 O   0  0  0  0  0  0  0  0  0  0  0  0
  -47.1457  -11.6793   20.6369 O   0  0  0  0  0  0  0  0  0  0  0  0
  -46.5827  -16.2703   19.1409 O   0  0  0  0  0  0  0  0  0  0  0  0
  -47.0487  -13.5053   18.5139 O   0  0  0  0  0  0  0  0  0  0  0  0
  -47.5597  -17.1703   21.7009 O   0  0  0  0  0  0  0  0  0  0  0  0
  -46.6687  -16.1403   24.0439 O   0  5  0  0  0  0  0  0  0  0  0  0
  -48.2627  -14.6653   24.7479 O   0  0  0  0  0  0  0  0  0  0  0  0
  -50.5297   -8.5773   21.6479 O   0  0  0  0  0  0  0  0  0  0  0  0
  -48.7267  -10.4473   22.4249 O   0  0  0  0  0  0  0  0  0  0  0  0
  -49.2207   -9.3323   17.0849 O   0  0  0  0  0  0  0  0  0  0  0  0
  -51.0657   -7.6643   17.7429 O   0  0  0  0  0  0  0  0  0  0  0  0
  -47.2977  -15.4033   20.0329 C   0  0  0  0  0  0  0  0  0  0  0  0
  -46.8227  -13.9503   19.8589 C   0  0  0  0  0  0  0  0  0  0  0  0
  -47.0817  -15.8333   21.4939 C   0  0  0  0  0  0  0  0  0  0  0  0
  -47.5817  -13.0433   20.8499 C   0  0  0  0  0  0  0  0  0  0  0  0
  -47.8267  -14.8493   22.4169 C   0  0  0  0  0  0  0  0  0  0  0  0
  -47.5667  -15.2503   23.8459 C   0  0  0  0  0  0  0  0  0  0  0  0
  -48.0467  -10.7973   20.1989 C   0  0  0  0  0  0  0  0  0  0  0  0
  -48.8647  -10.1603   21.1149 C   0  0  0  0  0  0  0  0  0  0  0  0
  -48.1757  -10.5183   18.8429 C   0  0  0  0  0  0  0  0  0  0  0  0
  -49.7877   -9.2113   20.6979 C   0  0  0  0  0  0  0  0  0  0  0  0
  -49.9077   -8.9353   19.3359 C   0  0  0  0  0  0  0  0  0  0  0  0
  -49.0977   -9.6023   18.4099 C   0  0  0  0  0  0  0  0  0  0  0  0
  -50.8747   -7.9373   18.9279 C   0  0  0  0  0  0  0  0  0  0  0  0
  -51.3887   -7.5823   21.2499 C   0  0  0  0  0  0  0  0  0  0  0  0
  -51.5957   -7.2553   19.9409 C   0  0  0  0  0  0  0  0  0  0  0  0
  -52.0957   -6.8583   22.3379 C   0  0  0  0  0  0  0  0  0  0  0  0
  -49.7637  -11.2313   23.0459 C   0  0  0  0  0  0  0  0  0  0  0  0
  -51.6977   -5.6133   22.8059 C   0  0  0  0  0  0  0  0  0  0  0  0
  -53.2017   -7.4573   22.9219 C   0  0  0  0  0  0  0  0  0  0  0  0
  -52.3847   -4.9943   23.8229 C   0  0  0  0  0  0  0  0  0  0  0  0
  -53.8877   -6.8383   23.9379 C   0  0  0  0  0  0  0  0  0  0  0  0
  -53.4797   -5.6043   24.3909 C   0  0  0  0  0  0  0  0  0  0  0  0
  -48.2717  -15.4653   19.8119 H   0  0  0  0  0  0  0  0  0  0  0  0
  -45.8417  -13.9023   20.0459 H   0  0  0  0  0  0  0  0  0  0  0  0
  -46.1037  -15.8183   21.7049 H   0  0  0  0  0  0  0  0  0  0  0  0
  -48.5677  -13.0893   20.6889 H   0  0  0  0  0  0  0  0  0  0  0  0
  -48.8037  -14.8863   22.2089 H   0  0  0  0  0  0  0  0  0  0  0  0
  -47.0207  -16.3053   18.2359 H   0  0  0  0  0  0  0  0  0  0  0  0
  -47.5137  -14.2113   17.9669 H   0  0  0  0  0  0  0  0  0  0  0  0
  -48.5307  -17.1753   21.9599 H   0  0  0  0  0  0  0  0  0  0  0  0
  -48.3317   -9.3743   16.6159 H   0  0  0  0  0  0  0  0  0  0  0  0
  -47.5927  -10.9883   18.1809 H   0  0  0  0  0  0  0  0  0  0  0  0
  -52.2527   -6.5413   19.6979 H   0  0  0  0  0  0  0  0  0  0  0  0
  -50.4607  -11.4493   22.3629 H   0  0  0  0  0  0  0  0  0  0  0  0
  -49.3747  -12.0773   23.4119 H   0  0  0  0  0  0  0  0  0  0  0  0
  -50.1767  -10.7123   23.7949 H   0  0  0  0  0  0  0  0  0  0  0  0
  -50.9037   -5.1623   22.3999 H   0  0  0  0  0  0  0  0  0  0  0  0
  -53.5047   -8.3533   22.5979 H   0  0  0  0  0  0  0  0  0  0  0  0
  -52.0877   -4.0973   24.1509 H   0  0  0  0  0  0  0  0  0  0  0  0
  -54.6827   -7.2843   24.3489 H   0  0  0  0  0  0  0  0  0  0  0  0
  -53.9777   -5.1523   25.1319 H   0  0  0  0  0  0  0  0  0  0  0  0
  1 15  1  0
  1 16  1  0
  2 18  1  0
  6 17  1  0
  7 17  2  0
  8 21  1  0
  8 25  1  0
  9 19  1  0
  9 28  1  0
 10 23  1  0
 11 24  2  0
 12  3  1  0
 12 13  1  0
 12 14  1  0
 13  4  1  0
 13 15  1  0
 14  5  1  0
 14 16  1  0
 15  2  1  0
 16 17  1  0
 18 19  2  0
 18 20  1  0
 19 21  1  0
 20 23  2  0
 21 22  2  0
 22 23  1  0
 22 24  1  0
 24 26  1  0
 25 26  2  0
 25 27  1  0
 27 29  2  0
 27 30  1  0
 29 31  1  0
 30 32  2  0
 31 33  2  0
 32 33  1  0
  3 39  1  0
  4 40  1  0
  5 41  1  0
 10 42  1  0
 12 34  1  0
 13 35  1  0
 14 36  1  0
 15 37  1  0
 16 38  1  0
 20 43  1  0
 26 44  1  0
 28 45  1  0
 28 46  1  0
 28 47  1  0
 29 48  1  0
 30 49  1  0
 31 50  1  0
 32 51  1  0
 33 52  1  0
M  CHG  1   6  -1
M  END
>  <BioMolTech Lead Finder dG>
-7.53

>  <BioMolTech Lead Finder VSscore>
-11.241

>  <BioMolTech Lead Finder Rank score>
-10.841

>  <BioMolTech Lead Finder LE>
-0.228

>  <BioMolTech Lead Finder Structure Name>
/var/folders/xd/y7jw_xv579q2qqq7kks92xd80000gn/T/LeadFinder_36873_1/Ligand_1.sdf

>  <BioMolTech Lead Finder SDF id>
0

>  <BioMolTech Lead Finder Pose rank>
0

>  <BioMolTech Lead Finder version>
2001 1, 19 January 2019

>  <PUBCHEM_COMPOUND_CID>
3084961

>  <PUBCHEM_COMPOUND_CANONICALIZED>
1

>  <PUBCHEM_CACTVS_COMPLEXITY>
763

>  <PUBCHEM_CACTVS_HBOND_ACCEPTOR>
11

>  <PUBCHEM_CACTVS_HBOND_DONOR>
5

>  <PUBCHEM_CACTVS_ROTATABLE_BOND>
5

>  <PUBCHEM_CACTVS_SUBSKEYS>
AAADceB4PAAAAAAAAAAAAAAAAAAAAAAAAAA0YIEAAAAAAACBQAAAGgAACAAADBSwmAMyDoAABgCIAqDSCAICCAAkIAAIiAFGiMgdNzaGNR6ieWKl4BUPuQfK7LzOIQABCAAIQABCAAIQABCAAAAAAAAAAA==

>  <PUBCHEM_IUPAC_OPENEYE_NAME>
(2S,3S,4S,5R,6S)-3,4,5-trihydroxy-6-(5-hydroxy-8-methoxy-4-oxo-2-phenyl-chromen-7-yl)oxy-tetrahydropyran-2-carboxylic acid

>  <PUBCHEM_IUPAC_CAS_NAME>
(2S,3S,4S,5R,6S)-3,4,5-trihydroxy-6-[(5-hydroxy-8-methoxy-4-oxo-2-phenyl-1-benzopyran-7-yl)oxy]-2-oxanecarboxylic acid

>  <PUBCHEM_IUPAC_NAME_MARKUP>
(2<I>S</I>,3<I>S</I>,4<I>S</I>,5<I>R</I>,6<I>S</I>)-3,4,5-trihydroxy-6-(5-hydroxy-8-methoxy-4-oxo-2-phenylchromen-7-yl)oxyoxane-2-carboxylic acid

>  <PUBCHEM_IUPAC_NAME>
(2S,3S,4S,5R,6S)-3,4,5-trihydroxy-6-(5-hydroxy-8-methoxy-4-oxo-2-phenylchromen-7-yl)oxyoxane-2-carboxylic acid

>  <PUBCHEM_IUPAC_SYSTEMATIC_NAME>
(2S,3S,4S,5R,6S)-6-(8-methoxy-5-oxidanyl-4-oxidanylidene-2-phenyl-chromen-7-yl)oxy-3,4,5-tris(oxidanyl)oxane-2-carboxylic acid

>  <PUBCHEM_IUPAC_TRADITIONAL_NAME>
(2S,3S,4S,5R,6S)-3,4,5-trihydroxy-6-(5-hydroxy-4-keto-8-methoxy-2-phenyl-chromen-7-yl)oxy-tetrahydropyran-2-carboxylic acid

>  <PUBCHEM_IUPAC_INCHI>
InChI=1S/C22H20O11/c1-30-18-13(32-22-17(27)15(25)16(26)20(33-22)21(28)29)8-11(24)14-10(23)7-12(31-19(14)18)9-5-3-2-4-6-9/h2-8,15-17,20,22,24-27H,1H3,(H,28,29)/t15-,16-,17+,20-,22+/m0/s1

>  <PUBCHEM_IUPAC_INCHIKEY>
LNOHXHDWGCMVCO-NTKSAMNMSA-N

>  <PUBCHEM_XLOGP3_AA>
1.4

>  <PUBCHEM_EXACT_MASS>
460.100561

>  <PUBCHEM_MOLECULAR_FORMULA>
C22H20O11

>  <PUBCHEM_MOLECULAR_WEIGHT>
460.4

>  <PUBCHEM_OPENEYE_CAN_SMILES>
COC1=C(C=C(C2=C1OC(=CC2=O)C3=CC=CC=C3)O)OC4C(C(C(C(O4)C(=O)O)O)O)O

>  <PUBCHEM_OPENEYE_ISO_SMILES>
COC1=C(C=C(C2=C1OC(=CC2=O)C3=CC=CC=C3)O)O[C@H]4[C@@H]([C@H]([C@@H]([C@H](O4)C(=O)O)O)O)O

>  <PUBCHEM_CACTVS_TPSA>
172

>  <PUBCHEM_MONOISOTOPIC_WEIGHT>
460.100561

>  <PUBCHEM_TOTAL_CHARGE>
0

>  <PUBCHEM_HEAVY_ATOM_COUNT>
33

>  <PUBCHEM_ATOM_DEF_STEREO_COUNT>
5

>  <PUBCHEM_ATOM_UDEF_STEREO_COUNT>
0

>  <PUBCHEM_BOND_DEF_STEREO_COUNT>
0

>  <PUBCHEM_BOND_UDEF_STEREO_COUNT>
0

>  <PUBCHEM_ISOTOPIC_ATOM_COUNT>
0

>  <PUBCHEM_COMPONENT_COUNT>
1

>  <PUBCHEM_CACTVS_TAUTO_COUNT>
-1

>  <PUBCHEM_COORDINATE_TYPE>
1
5
255

>  <PUBCHEM_BONDANNOTATIONS>
16  17  5
18  19  8
18  20  8
19  21  8
15  2  5
20  23  8
21  22  8
22  23  8
22  24  8
24  26  8
25  26  8
27  29  8
27  30  8
29  31  8
12  3  5
30  32  8
31  33  8
32  33  8
13  4  6
14  5  6
8  21  8
8  25  8

>  <LF dG>
-7.53

>  <LF VSscore>
-11.241

>  <LF Rank Score>
-10.841

>  <LF LE>
-0.228

>  <Preferred Pose_cresset>
true

>  <Favorite_cresset>
false

>  <Protein_cresset>
6M2N_Dimer_P

>  <MW_cresset>
459.4

>  <#Atoms_cresset>
33

>  <SlogP_cresset>
1.4

>  <TPSA_cresset>
175

>  <Flexibility_cresset>
7.6

>  <#RB_cresset>
9

>  <Rof5_cresset>
1

>  <Filename_cresset>
Wogonoside.sdf

>  <Confs_cresset>
0

>  <Poses_cresset>
10

>  <_cresset_fieldpoints>
    -5     -46.552692     -17.900824      20.244808    -17.7915
    -5     -46.309738     -17.833778      22.990273    -15.8685
    -5     -46.814430     -11.931406      23.162621    -12.5612
    -5     -45.593174     -12.358505      18.032797     -9.9876
    -5     -46.586845     -16.359045      25.883671    -11.4851
    -5     -47.519337     -15.455690      26.320656    -11.1386
    -5     -49.329514      -8.281531      23.462158     -6.1714
    -5     -50.712112      -8.585237      16.145386    -23.1012
    -5     -54.717659      -4.782955      21.644619     -2.2808
    -6     -48.584293     -15.604420      17.431053     18.5716
    -6     -50.061920     -16.276775      21.243492     13.3945
    -6     -46.687027     -10.082846      16.134155      8.5260
    -6     -50.146194     -14.745262      20.563442     10.5049
    -6     -49.331650      -5.402152      21.049026      2.8061
    -6     -52.695267     -10.329655      21.885546      4.5385
    -6     -55.957314      -6.348508      26.077831      2.7267
    -6     -53.311249      -2.984534      25.928448      2.6793
    -6     -50.139542      -3.075036      22.982069      2.8191
    -7     -44.941166     -13.410671      22.657219     -2.3631
    -7     -46.559521     -11.784210      23.583286     -2.8336
    -7     -47.942940     -18.467194      19.644003     -1.5194
    -7     -47.667877     -18.310169      23.794392     -1.6583
    -7     -44.148598     -16.065214      19.747271     -1.5914
    -7     -45.408623     -15.004163      17.223129     -1.6546
    -7     -45.078312     -11.657438      18.545124     -2.0690
    -7     -50.448250     -16.375381      20.893433     -1.7400
    -7     -50.116676     -16.880533      23.568134     -1.3984
    -7     -47.025322     -16.074532      26.593918     -0.8509
    -7     -50.611629     -14.298523      24.057175     -1.8158
    -7     -49.714165     -13.412447      18.371361     -2.8254
    -7     -48.902866      -6.871529      16.636185     -1.7583
    -7     -50.931351     -12.523680      19.919708     -2.9338
    -7     -46.984623      -7.360251      20.172890     -1.9156
    -7     -51.732368      -9.750904      16.454460     -1.6373
    -7     -52.691639     -10.352450      21.256367     -2.9591
    -7     -48.893524      -5.990318      20.811539     -2.6537
    -7     -50.675037      -2.454263      22.314484     -0.9871
    -7     -54.352463      -5.117704      20.655739     -2.0430
    -7     -53.329651      -2.695359      26.136585     -0.9675
    -7     -49.478863      -8.049659      23.872005     -3.0685
    -7     -56.181145      -6.206907      26.364382     -0.9670
    -8     -48.990334      -9.863638      19.740335      6.6178
    -8     -47.423828     -14.702915      20.849422      5.1858
    -8     -52.791702      -6.226332      23.366825      7.1514
    -8     -50.421364     -11.713097      23.370993      2.5286
    -8     -50.696159      -8.170771      19.968245      5.0158

$$$$
