Untitled
  xed2sdf_05210316543D
 
 43 46  0  0  0  0  0  0  0  0999 V2000
   10.4874   -1.1527   18.6533 S   0  0  0  0  0  0  0  0  0  0  0  0
    9.3379   -1.1174   19.4974 O   0  0  0  0  0  0  0  0  0  0  0  0
   11.5676   -2.0261   18.9783 O   0  0  0  0  0  0  0  0  0  0  0  0
   11.0864    0.3450   18.6366 N   0  0  0  0  0  0  0  0  0  0  0  0
   10.7233    1.8215   21.1618 N   0  0  0  0  0  0  0  0  0  0  0  0
   11.3230    2.3402   22.2552 N   0  0  0  0  0  0  0  0  0  0  0  0
   10.5935    5.3983   20.1314 N   0  0  0  0  0  0  0  0  0  0  0  0
    7.2771    1.6888   23.9083 N   0  0  0  0  0  0  0  0  0  0  0  0
    7.6267   -1.6999   26.1412 N   0  0  0  0  0  0  0  0  0  0  0  0
    6.2747    0.1615   25.5066 N   0  0  0  0  0  0  0  0  0  0  0  0
   11.2225    1.9647   19.7827 C   0  0  0  0  0  0  0  0  0  0  0  0
   12.1784    0.7784   19.4986 C   0  0  0  0  0  0  0  0  0  0  0  0
   10.2152    1.5108   18.6934 C   0  0  0  0  0  0  0  0  0  0  0  0
   11.9197    3.2878   19.3795 C   0  0  0  0  0  0  0  0  0  0  0  0
    9.9413   -1.5051   16.9621 C   0  0  0  0  0  0  0  0  0  0  0  0
    9.5921    1.2431   21.6311 C   0  0  0  0  0  0  0  0  0  0  0  0
    9.4392    1.3687   22.9669 C   0  0  0  0  0  0  0  0  0  0  0  0
   11.1723    4.4776   19.8032 C   0  0  0  0  0  0  0  0  0  0  0  0
   10.5966    2.0931   23.3111 C   0  0  0  0  0  0  0  0  0  0  0  0
   11.1038   -2.0961   16.1510 C   0  0  0  0  0  0  0  0  0  0  0  0
    8.3883    0.9213   23.8597 C   0  0  0  0  0  0  0  0  0  0  0  0
    8.4784   -0.2269   24.6365 C   0  0  0  0  0  0  0  0  0  0  0  0
    7.4070   -0.5637   25.4362 C   0  0  0  0  0  0  0  0  0  0  0  0
    9.4394   -1.2588   24.8897 C   0  0  0  0  0  0  0  0  0  0  0  0
    6.2936    1.2527   24.7274 C   0  0  0  0  0  0  0  0  0  0  0  0
    8.8962   -2.0926   25.7728 C   0  0  0  0  0  0  0  0  0  0  0  0
    7.0830   -2.0965   26.7081 H   0  0  0  0  0  0  0  0  0  0  0  0
   13.0340    1.0089   19.0351 H   0  0  0  0  0  0  0  0  0  0  0  0
   12.5943    0.2095   20.2083 H   0  0  0  0  0  0  0  0  0  0  0  0
    9.2809    1.3413   19.0062 H   0  0  0  0  0  0  0  0  0  0  0  0
    9.9607    2.0620   17.8989 H   0  0  0  0  0  0  0  0  0  0  0  0
   12.0191    3.3077   18.3845 H   0  0  0  0  0  0  0  0  0  0  0  0
   12.8072    3.3123   19.8394 H   0  0  0  0  0  0  0  0  0  0  0  0
    9.6282   -0.6592   16.5299 H   0  0  0  0  0  0  0  0  0  0  0  0
    9.1905   -2.1649   16.9890 H   0  0  0  0  0  0  0  0  0  0  0  0
    8.9344    0.7689   21.0456 H   0  0  0  0  0  0  0  0  0  0  0  0
   10.8308    2.3798   24.2401 H   0  0  0  0  0  0  0  0  0  0  0  0
   11.9118   -2.1575   16.7372 H   0  0  0  0  0  0  0  0  0  0  0  0
   10.8569   -3.0075   15.8214 H   0  0  0  0  0  0  0  0  0  0  0  0
   11.2998   -1.5082   15.3660 H   0  0  0  0  0  0  0  0  0  0  0  0
   10.3482   -1.3377   24.4796 H   0  0  0  0  0  0  0  0  0  0  0  0
    5.4702    1.8195   24.7557 H   0  0  0  0  0  0  0  0  0  0  0  0
    9.3542   -2.9077   26.1275 H   0  0  0  0  0  0  0  0  0  0  0  0
  1  2  2  0
  1  3  2  0
  1  4  1  0
  1 15  1  0
  4 12  1  0
  4 13  1  0
  5  6  1  0
  5 11  1  0
  5 16  1  0
  6 19  2  0
  7 18  3  0
  8 21  2  0
  8 25  1  0
  9 23  1  0
  9 26  1  0
 10 23  1  0
 10 25  2  0
 11 12  1  0
 11 13  1  0
 11 14  1  0
 14 18  1  0
 15 20  1  0
 16 17  2  0
 17 19  1  0
 17 21  1  0
 21 22  1  0
 22 23  2  0
 22 24  1  0
 24 26  2  0
  9 27  1  0
 12 28  1  0
 12 29  1  0
 13 30  1  0
 13 31  1  0
 14 32  1  0
 14 33  1  0
 15 34  1  0
 15 35  1  0
 16 36  1  0
 19 37  1  0
 20 38  1  0
 20 39  1  0
 20 40  1  0
 24 41  1  0
 25 42  1  0
 26 43  1  0
M  END
>  <BioMolTech Lead Finder dG>
-7.433

>  <BioMolTech Lead Finder VSscore>
-8.052

>  <BioMolTech Lead Finder Rank score>
-8.925

>  <BioMolTech Lead Finder LE>
-0.286

>  <BioMolTech Lead Finder Structure Name>
/var/folders/xd/y7jw_xv579q2qqq7kks92xd80000gn/T/LeadFinder_94333_1/Ligand_1.sdf

>  <BioMolTech Lead Finder SDF id>
0

>  <BioMolTech Lead Finder Pose rank>
0

>  <BioMolTech Lead Finder version>
2001 1, 19 January 2019

>  <PUBCHEM_COMPOUND_CID>
44205240

>  <PUBCHEM_CONFORMER_RMSD>
0.8

>  <PUBCHEM_CONFORMER_DIVERSEORDER>
1
229
271
337
112
215
116
171
96
151
26
279
338
66
240
292
128
248
124
340
177
144
319
334
59
90
129
320
226
109
274
132
102
201
251
152
84
299
277
178
219
232
342
136
130
330
31
145
118
275
324
282
213
28
7
270
249
174
329
137
39
223
32
212
146
264
302
153
312
170
193
120
83
14
283
225
297
147
20
231
113
333
181
256
195
293
244
30
62
301
71
175
53
204
252
294
243
257
87
306
79
186
190
305
142
255
183
19
121
25
288
326
48
278
238
139
133
308
122
339
281
224
218
221
173
70
159
85
80
303
259
29
141
327
336
230
72
43
157
179
56
198
58
265
222
35
242
313
6
280
155
188
158
335
89
314
34
104
111
42
239
296
237
317
241
332
315
194
114
125
164
233
311
286
150
250
227
16
266
197
253
2
115
180
184
169
98
192
162
11
258
76
261
107
57
119
108
200
9
182
127
52
325
154
92
321
27
310
91
47
245
86
236
105
176
246
262
202
211
167
36
61
143
263
208
78
63
217
41
205
216
148
295
106
316
117
290
140
285
300
207
17
97
168
73
126
15
191
254
165
74
166
185
99
75
276
68
49
268
5
149
50
46
163
38
23
77
21
172
331
318
196
284
22
187
40
328
33
341
101
228
214
161
138
51
287
234
220
12
82
189
160
60
269
309
45
95
37
44
103
94
4
289
323
199
88
55
69
134
304
18
322
67
206
8
10
65
307
3
247
24
298
135
110
81
260
100
13
272
131
123
235
267
64
54
209
93
156
273
203
291
210

>  <PUBCHEM_MMFF94_PARTIAL_CHARGES>
30
1 1.33
10 -0.57
11 0.09
12 0.31
13 0.31
14 0.2
15 0.11
16 -0.3
17 -0.05
18 0.36
19 0.14
2 -0.65
21 0.36
23 0.11
24 -0.15
25 0.47
26 -0.3
3 -0.65
35 0.15
36 0.15
4 -0.75
40 0.15
41 0.27
42 0.15
43 0.15
5 0.48
6 -0.71
7 -0.56
8 -0.62
9 0.03

>  <PUBCHEM_EFFECTIVE_ROTOR_COUNT>
5.8

>  <PUBCHEM_PHARMACOPHORE_FEATURES>
11
1 2 acceptor
1 3 acceptor
1 6 acceptor
1 7 acceptor
1 9 donor
3 8 10 25 cation
3 9 10 23 cation
4 4 11 12 13 rings
5 5 6 16 17 19 rings
5 9 22 23 24 26 rings
6 8 10 21 22 23 25 rings

>  <PUBCHEM_HEAVY_ATOM_COUNT>
26

>  <PUBCHEM_ATOM_DEF_STEREO_COUNT>
0

>  <PUBCHEM_ATOM_UDEF_STEREO_COUNT>
0

>  <PUBCHEM_BOND_DEF_STEREO_COUNT>
0

>  <PUBCHEM_BOND_UDEF_STEREO_COUNT>
0

>  <PUBCHEM_ISOTOPIC_ATOM_COUNT>
0

>  <PUBCHEM_COMPONENT_COUNT>
1

>  <PUBCHEM_CACTVS_TAUTO_COUNT>
3

>  <PUBCHEM_CONFORMER_ID>
02A284B800000001

>  <PUBCHEM_MMFF94_ENERGY>
39.0782

>  <PUBCHEM_FEATURE_SELFOVERLAP>
56.117

>  <PUBCHEM_SHAPE_FINGERPRINT>
10 15 14851889192643122940
10090160 65 18187361034427607257
10366900 7 18408598176000163665
10554248 39 17984407548430918381
10670039 82 18201723929368582448
10759866 29 18200589203372050867
11315621 246 17703219720037242581
11578080 2 17970619689387299261
11823591 26 18041276660509129240
12107183 9 17478609010829926819
12236239 1 18342172262981060573
12403259 415 16128364983183472939
12516196 113 10159702391590594526
13167823 11 18199179608285999363
13631057 29 18265048218980642563
13685833 64 12823300104645968916
13782708 43 14548444895192689221
14251752 14 17418096499115491460
14528608 73 18411979173965456392
14840074 17 17676206900737760108
15183329 4 17560810913836129484
15250474 111 18199732684120514039
15301273 46 13334730229330191848
17980427 23 16588594235000578454
18681886 176 17560794459230843121
19377110 9 18411409592988608739
20832881 197 12103852266996045286
21065198 48 18270393894116538115
21267235 1 17846778559909350391
21424621 283 18341608261636566424
21781055 127 16126695787441929803
2297311 6 17275105046610008225
23559900 14 17201359551604417575
3004659 81 17561369474659892164
34797466 226 16916788543075468480
38570 142 18411427206670724558
474 4 18260830427244706400
504579 68 18271798000318950621
5104073 3 17916859115971386827
59755656 520 18334293201912900190
7226269 152 13767913620980268973

>  <PUBCHEM_SHAPE_MULTIPOLES>
492.31
15.87
2.73
1.51
2.38
2.61
0.11
-9.13
5.85
1.94
-1.03
0.27
0.01
-2.52

>  <PUBCHEM_SHAPE_SELFOVERLAP>
1061.16

>  <PUBCHEM_SHAPE_VOLUME>
274.4

>  <PUBCHEM_COORDINATE_TYPE>
2
5
10

>  <LF dG>
-7.433

>  <LF VSscore>
-8.052

>  <LF Rank Score>
-8.925

>  <LF LE>
-0.286

>  <Preferred Pose_cresset>
true

>  <Favorite_cresset>
false

>  <Protein_cresset>
6Y2F_P

>  <MW_cresset>
371.4

>  <#Atoms_cresset>
26

>  <SlogP_cresset>
1.1

>  <TPSA_cresset>
120.6

>  <Flexibility_cresset>
3

>  <#RB_cresset>
5

>  <Rof5_cresset>
0

>  <Filename_cresset>
Baricitinib.sdf

>  <Confs_cresset>
0

>  <Poses_cresset>
10

>  <_cresset_fieldpoints>
    -5       5.898328      -1.384148      23.010902     -4.8658
    -5       7.401814       3.599581      23.235630     -9.6129
    -5       4.723666      -0.034330      26.712898     -5.3391
    -5      12.586994      -3.312255      19.979040     -4.2925
    -5       9.438165       5.356404      21.913923    -10.3217
    -5       9.236649      -2.048268      21.403936     -5.1895
    -5       6.726266      -2.091067      22.942131     -4.8459
    -6       7.150559      -3.752640      27.855167      5.6421
    -6      14.098305       2.624049      17.655632      6.8949
    -6      11.680630       2.633606      16.304571      6.9851
    -7       7.260118      -0.140442      19.440941     -2.3405
    -7      10.940939      -4.363294      18.506151     -1.7077
    -7      13.833907      -1.636093      18.301825     -2.0768
    -7      10.300007       4.246134      16.561405     -1.4773
    -7       7.207120       3.731381      22.303057     -1.8242
    -7       8.079898       3.651196      20.120035     -2.2434
    -7      10.049534       1.766406      26.737341     -2.0335
    -7       4.693354      -0.819482      27.195412     -1.2501
    -7      11.107198      -1.547785      21.787947     -3.2184
    -7       9.003188      -0.911363      13.849018     -1.0611
    -7      12.207103       1.008689      16.276611     -2.9009
    -7      13.674631       2.096931      22.051025     -2.3993
    -8      10.520372      -1.590742      17.106722      4.9996
    -8       9.468248       1.151426      23.152943      4.6816
    -8      11.737484       2.191603      19.129446      4.9727
    -8       8.683890      -0.399318      24.661297      5.0023
    -8       5.258427       1.967286      24.752722      1.2712

$$$$
