DAR-DIA-9e4459de-1_D
  xed2sdf_05210316543D
 
 82 86  0  0  1  0  0  0  0  0999 V2000
    8.9612  -10.6802   26.0854 O   0  0  0  0  0  0  0  0  0  0  0  0
    8.9692   -9.4642   26.1674 C   0  0  0  0  0  0  0  0  0  0  0  0
   10.1522   -8.7152   26.7374 C   0  0  0  0  0  0  0  0  0  0  0  0
   10.3182   -7.3322   26.1014 C   0  0  0  0  0  0  0  0  0  0  0  0
    8.9982   -6.5982   26.3554 C   0  0  0  0  0  0  0  0  0  0  0  0
    9.0632   -5.2172   25.8534 N   0  0  0  0  0  0  0  0  0  0  0  0
   10.0242   -4.7992   24.8184 C   0  0  0  0  0  0  0  0  0  0  0  0
   10.0492   -3.3402   25.3104 C   0  0  0  0  0  0  0  0  0  0  0  0
   10.7742   -2.2162   24.6014 C   0  0  0  0  0  0  0  0  0  0  0  0
   11.7682   -2.6412   23.7684 N   0  0  0  0  0  0  0  0  0  0  0  0
   11.6392   -2.4642   22.3154 C   0  0  0  0  0  0  0  0  0  0  0  0
   12.4662   -1.2992   21.7484 C   0  0  0  0  0  0  0  0  0  0  0  0
   11.5062   -0.3362   21.0344 C   0  0  0  0  0  0  0  0  0  0  0  0
   12.1512    0.2108   19.7524 C   0  0  0  0  0  0  0  0  0  0  0  0
   11.0402    0.4738   18.7254 C   0  0  0  0  0  0  0  0  0  0  0  0
   10.4212    1.8588   18.9604 C   0  0  0  0  0  0  0  0  0  0  0  0
   11.5012    2.8558   18.9834 N   0  0  0  0  0  0  0  0  0  0  0  0
   11.4172    3.9218   19.8104 C   0  0  0  0  0  0  0  0  0  0  0  0
   10.4632    4.1068   20.5624 O   0  0  0  0  0  0  0  0  0  0  0  0
   12.5012    4.9438   19.8294 C   0  0  0  0  0  0  0  0  0  0  0  0
   12.9402    5.5308   18.6584 C   0  0  0  0  0  0  0  0  0  0  0  0
   13.9202    6.4898   18.6814 C   0  0  0  0  0  0  0  0  0  0  0  0
   14.5162    6.9248   19.8074 N   0  0  0  0  0  0  0  0  0  0  0  0
   14.0872    6.3518   20.9434 C   0  0  0  0  0  0  0  0  0  0  0  0
   13.1072    5.3758   21.0064 C   0  0  0  0  0  0  0  0  0  0  0  0
   12.7442    4.8268   22.2424 N   0  0  0  0  0  0  0  0  0  0  0  0
   11.9782    5.4218   23.1794 C   0  0  0  0  0  0  0  0  0  0  0  0
   11.4662    6.5258   23.0624 O   0  0  0  0  0  0  0  0  0  0  0  0
   11.7742    4.5668   24.4134 C   0  0  0  0  0  0  0  0  0  0  0  0
   12.9402    4.7328   25.3704 C   0  0  0  0  0  0  0  0  0  0  0  0
   13.4542    5.9848   25.6244 C   0  0  0  0  0  0  0  0  0  0  0  0
   14.5112    6.1348   26.4934 C   0  0  0  0  0  0  0  0  0  0  0  0
   15.0572    5.0328   27.1114 C   0  0  0  0  0  0  0  0  0  0  0  0
   14.5442    3.7798   26.8604 C   0  0  0  0  0  0  0  0  0  0  0  0
   15.2322    2.3858   27.6404 Cl  0  0  0  0  0  0  0  0  0  0  0  0
   13.4862    3.6308   25.9904 C   0  0  0  0  0  0  0  0  0  0  0  0
   10.4202   -0.9472   24.8594 C   0  0  0  0  0  0  0  0  0  0  0  0
    9.3432   -0.6642   25.8094 C   0  0  0  0  0  0  0  0  0  0  0  0
    8.4762   -1.6212   26.1364 C   0  0  0  0  0  0  0  0  0  0  0  0
    8.5742   -3.0052   25.5484 C   0  0  0  0  0  0  0  0  0  0  0  0
    8.2592   -4.2512   26.3254 C   0  0  0  0  0  0  0  0  0  0  0  0
    7.4302   -4.3572   27.2184 O   0  0  0  0  0  0  0  0  0  0  0  0
    7.8232   -7.3462   25.7644 C   0  0  0  0  0  0  0  0  0  0  0  0
    6.8462   -6.7602   25.3294 O   0  0  0  0  0  0  0  0  0  0  0  0
    7.9372   -8.6932   25.7534 N   0  0  0  0  0  0  0  0  0  0  0  0
    8.8562   -6.5592   27.3444 H   0  0  0  0  0  0  0  0  0  0  0  0
   10.6692   -3.3582   26.0944 H   0  0  0  0  0  0  0  0  0  0  0  0
    7.9052   -2.8782   24.8164 H   0  0  0  0  0  0  0  0  0  0  0  0
   10.9822   -9.2492   26.5764 H   0  0  0  0  0  0  0  0  0  0  0  0
    9.9922   -8.5852   27.7164 H   0  0  0  0  0  0  0  0  0  0  0  0
   10.4912   -7.4172   25.1194 H   0  0  0  0  0  0  0  0  0  0  0  0
   11.0962   -6.8382   26.4904 H   0  0  0  0  0  0  0  0  0  0  0  0
    9.6762   -4.9002   23.8864 H   0  0  0  0  0  0  0  0  0  0  0  0
   10.8902   -5.2932   24.7384 H   0  0  0  0  0  0  0  0  0  0  0  0
   12.3202   -3.2632   24.0594 H   0  0  0  0  0  0  0  0  0  0  0  0
   10.6762   -2.3012   22.1024 H   0  0  0  0  0  0  0  0  0  0  0  0
   11.9912   -3.2992   21.8914 H   0  0  0  0  0  0  0  0  0  0  0  0
   13.1442   -1.6472   21.1014 H   0  0  0  0  0  0  0  0  0  0  0  0
   12.9472   -0.8252   22.4854 H   0  0  0  0  0  0  0  0  0  0  0  0
   11.2862    0.4248   21.6454 H   0  0  0  0  0  0  0  0  0  0  0  0
   10.6722   -0.8302   20.7894 H   0  0  0  0  0  0  0  0  0  0  0  0
   12.8012   -0.4562   19.3884 H   0  0  0  0  0  0  0  0  0  0  0  0
   12.6422    1.0598   19.9504 H   0  0  0  0  0  0  0  0  0  0  0  0
   10.3332   -0.2272   18.8144 H   0  0  0  0  0  0  0  0  0  0  0  0
   11.4322    0.4438   17.8054 H   0  0  0  0  0  0  0  0  0  0  0  0
    9.9312    1.8678   19.8314 H   0  0  0  0  0  0  0  0  0  0  0  0
    9.7742    2.0738   18.2274 H   0  0  0  0  0  0  0  0  0  0  0  0
   12.2062    2.7398   18.4714 H   0  0  0  0  0  0  0  0  0  0  0  0
   12.5382    5.2548   17.7854 H   0  0  0  0  0  0  0  0  0  0  0  0
   14.2102    6.8878   17.8104 H   0  0  0  0  0  0  0  0  0  0  0  0
   14.5042    6.6488   21.8024 H   0  0  0  0  0  0  0  0  0  0  0  0
   13.0432    4.0198   22.4174 H   0  0  0  0  0  0  0  0  0  0  0  0
   11.7002    3.6068   24.1434 H   0  0  0  0  0  0  0  0  0  0  0  0
   10.9342    4.8568   24.8744 H   0  0  0  0  0  0  0  0  0  0  0  0
   13.0582    6.7868   25.1774 H   0  0  0  0  0  0  0  0  0  0  0  0
   14.8822    7.0458   26.6754 H   0  0  0  0  0  0  0  0  0  0  0  0
   15.8252    5.1428   27.7414 H   0  0  0  0  0  0  0  0  0  0  0  0
   13.1132    2.7208   25.8104 H   0  0  0  0  0  0  0  0  0  0  0  0
   10.8932   -0.1932   24.4014 H   0  0  0  0  0  0  0  0  0  0  0  0
    9.2582    0.2468   26.2134 H   0  0  0  0  0  0  0  0  0  0  0  0
    7.7442   -1.4172   26.7854 H   0  0  0  0  0  0  0  0  0  0  0  0
    7.2482   -9.1292   25.4204 H   0  0  0  0  0  0  0  0  0  0  0  0
  1  2  2  0
  2  3  1  0
  2 45  1  0
  3  4  1  0
  4  5  1  0
  5  6  1  0
  5 43  1  0
  6  7  1  0
  6 41  1  0
  7  8  1  0
  8  9  1  0
  8 40  1  0
  9 10  1  0
  9 37  2  0
 10 11  1  0
 11 12  1  0
 12 13  1  0
 13 14  1  0
 14 15  1  0
 15 16  1  0
 16 17  1  0
 17 18  1  0
 18 19  2  0
 18 20  1  0
 20 21  2  0
 20 25  1  0
 21 22  1  0
 22 23  2  0
 23 24  1  0
 24 25  2  0
 25 26  1  0
 26 27  1  0
 27 28  2  0
 27 29  1  0
 29 30  1  0
 30 31  2  0
 30 36  1  0
 31 32  1  0
 32 33  2  0
 33 34  1  0
 34 35  1  0
 34 36  2  0
 37 38  1  0
 38 39  2  0
 39 40  1  0
 40 41  1  0
 41 42  2  0
 43 44  2  0
 43 45  1  0
  3 49  1  0
  3 50  1  0
  4 51  1  0
  4 52  1  0
  5 46  1  0
  7 53  1  0
  7 54  1  0
  8 47  1  0
 10 55  1  0
 11 56  1  0
 11 57  1  0
 12 58  1  0
 12 59  1  0
 13 60  1  0
 13 61  1  0
 14 62  1  0
 14 63  1  0
 15 64  1  0
 15 65  1  0
 16 66  1  0
 16 67  1  0
 17 68  1  0
 21 69  1  0
 22 70  1  0
 24 71  1  0
 26 72  1  0
 29 73  1  0
 29 74  1  0
 31 75  1  0
 32 76  1  0
 33 77  1  0
 36 78  1  0
 37 79  1  0
 38 80  1  0
 39 81  1  0
 40 48  1  0
 45 82  1  0
M  END
>  <BioMolTech Lead Finder dG>
-10.774

>  <BioMolTech Lead Finder VSscore>
-12.18

>  <BioMolTech Lead Finder Rank score>
-5.451

>  <BioMolTech Lead Finder LE>
-0.239

>  <BioMolTech Lead Finder Structure Name>
/var/folders/xd/y7jw_xv579q2qqq7kks92xd80000gn/T/LeadFinder_21449_1/Ligand_1.sdf

>  <BioMolTech Lead Finder SDF id>
0

>  <BioMolTech Lead Finder Pose rank>
0

>  <BioMolTech Lead Finder version>
2001 1, 19 January 2019

>  <LF dG>
-10.774

>  <LF VSscore>
-12.18

>  <LF Rank Score>
-5.451

>  <LF LE>
-0.239

>  <Preferred Pose_cresset>
true

>  <Favorite_cresset>
false

>  <Protein_cresset>
6Y2F_P

>  <MW_cresset>
633.1

>  <#Atoms_cresset>
45

>  <SlogP_cresset>
2.9

>  <TPSA_cresset>
149.6

>  <Flexibility_cresset>
10.4

>  <#RB_cresset>
13

>  <Rof5_cresset>
2

>  <Filename_cresset>
DAR-DIA-9e4459de-1.mol

>  <Confs_cresset>
0

>  <Poses_cresset>
10

>  <_cresset_fieldpoints>
    -5       9.915243     -12.197204      26.446440    -13.1155
    -5       6.188268      -3.307334      27.843357    -18.0479
    -5      15.728243       8.406796      19.810440    -10.7835
    -5      10.113136       5.738099      21.500465    -20.0779
    -5      16.431244       4.857797      24.368439     -1.3715
    -5      12.166243       5.360797      28.503439     -2.6360
    -5       6.043295      -5.368603      26.370823    -22.1549
    -5      16.998243       2.992797      29.496439     -1.3350
    -5      13.116243       0.701797      28.132439     -1.2245
    -5       8.128242      -0.494203      23.657440     -4.8040
    -6      10.758244      -6.828203      28.924438      5.3630
    -6       8.059243      -8.198203      28.616440      5.1445
    -6       5.793243     -10.075203      24.614439      5.4185
    -6      10.560243      -2.906204      19.451439      3.6630
    -6      13.103243       2.200797      23.011440     12.2680
    -6      13.626244       2.801797      17.188438      8.6410
    -6      13.018243      -4.893203      24.779440     13.5610
    -6       8.372243      -0.353203      20.024439      3.0590
    -6      16.786243       7.236797      28.190439      2.8230
    -7       9.926243     -11.635203      28.147440     -1.1370
    -7       7.274243      -8.515203      28.491440     -2.0105
    -7      12.614243      -5.633203      22.945440     -1.8760
    -7       8.889243      -7.472203      23.067440     -2.3140
    -7      12.887243      -4.786203      26.326439     -2.1280
    -7      11.258243      -2.921203      19.032440     -2.2870
    -7      14.640244       2.526797      19.642439     -2.5740
    -7      10.800243       3.982797      16.578440     -2.1220
    -7       8.526243      -1.102203      22.679440     -3.1840
    -7      10.357243       2.528797      22.367439     -3.4910
    -7      13.004243       1.645797      23.235439     -3.5950
    -7      16.527243       8.380796      19.767439     -1.0275
    -7      12.971243       8.353797      23.310440     -2.2910
    -7      10.610243       7.622797      25.022440     -1.9110
    -7      11.752243       5.142797      28.559441     -1.8740
    -7      10.633244       2.211797      26.317440     -2.1955
    -7      17.034243       7.510797      28.314440     -0.9780
    -7       9.888243       6.479797      21.249439     -2.3415
    -7      15.503242       4.437797      23.324440     -3.0840
    -7      10.570243      -4.653203      28.316441     -2.6155
    -7       7.059243      -5.197203      23.598440     -2.5465
    -7       5.513243      -2.934203      26.603439     -1.5645
    -7       5.896243      -6.088203      27.575439     -1.8085
    -8       9.654243      -7.729203      26.463440      5.6035
    -8       9.577243      -2.028203      25.399439      7.0375
    -8      11.328243       0.218797      19.873440      5.8890
    -8      12.120243      -0.532203      20.778439      5.7895
    -8      11.746243      -1.311203      21.554440      5.6505
    -8      13.996243       4.880797      26.236439      7.1940
    -8      13.204243       5.628797      19.751440      5.3680
    -8      14.629243       3.594797      26.957439      5.6110

$$$$
