69634125
  -OEChem-02092118513D

 62 64  0     1  0  0  0  0  0999 V2000
    0.8448    1.6722   -0.7762 O   0  0  0  0  0  0  0  0  0  0  0  0
    2.4894   -0.5387   -0.3827 O   0  0  0  0  0  0  0  0  0  0  0  0
    2.0018   -2.5196   -1.5948 O   0  0  0  0  0  0  0  0  0  0  0  0
    4.3650    2.4171   -0.0937 O   0  0  0  0  0  0  0  0  0  0  0  0
   -1.1366    2.7928   -0.2638 O   0  0  0  0  0  0  0  0  0  0  0  0
    2.9591    3.8920    1.9566 O   0  0  0  0  0  0  0  0  0  0  0  0
    0.3714    4.8644    0.9371 O   0  0  0  0  0  0  0  0  0  0  0  0
    3.7818   -3.8830    0.2032 O   0  0  0  0  0  0  0  0  0  0  0  0
    1.9812   -3.8744    2.3251 O   0  0  0  0  0  0  0  0  0  0  0  0
   -0.4664   -3.7221    0.8651 O   0  0  0  0  0  0  0  0  0  0  0  0
   -4.4991   -2.2130   -1.0055 O   0  0  0  0  0  0  0  0  0  0  0  0
   -4.5218   -2.1277    1.7725 O   0  0  0  0  0  0  0  0  0  0  0  0
    2.2467    1.7564   -1.0380 C   0  0  1  0  0  0  0  0  0  0  0  0
    2.9811    2.2586    0.2074 C   0  0  2  0  0  0  0  0  0  0  0  0
    2.4082    3.5976    0.6720 C   0  0  1  0  0  0  0  0  0  0  0  0
    0.8837    3.5423    0.7725 C   0  0  2  0  0  0  0  0  0  0  0  0
    3.1199   -2.6691    0.5622 C   0  0  1  0  0  0  0  0  0  0  0  0
    2.9151   -1.8558   -0.7145 C   0  0  2  0  0  0  0  0  0  0  0  0
    1.7804   -2.9834    1.2304 C   0  0  1  0  0  0  0  0  0  0  0  0
    0.8083   -3.6190    0.2356 C   0  0  2  0  0  0  0  0  0  0  0  0
    0.2646    2.9426   -0.4901 C   0  0  1  0  0  0  0  0  0  0  0  0
    2.7216    0.3671   -1.4518 C   0  0  0  0  0  0  0  0  0  0  0  0
    0.7083   -2.7553   -1.0294 C   0  0  2  0  0  0  0  0  0  0  0  0
   -0.1366   -3.4217   -2.1115 C   0  0  0  0  0  0  0  0  0  0  0  0
   -1.8480    2.6845   -1.4869 C   0  0  0  0  0  0  0  0  0  0  0  0
   -3.3394    2.5403   -1.2044 C   0  0  0  0  0  0  0  0  0  0  0  0
   -3.6559    1.2942   -0.4136 C   0  0  0  0  0  0  0  0  0  0  0  0
   -3.9371    0.0998   -1.0769 C   0  0  0  0  0  0  0  0  0  0  0  0
   -3.6662    1.3369    0.9806 C   0  0  0  0  0  0  0  0  0  0  0  0
   -4.2285   -1.0521   -0.3460 C   0  0  0  0  0  0  0  0  0  0  0  0
   -3.9579    0.1851    1.7114 C   0  0  0  0  0  0  0  0  0  0  0  0
   -4.2390   -1.0094    1.0481 C   0  0  0  0  0  0  0  0  0  0  0  0
    2.4160    2.4327   -1.8865 H   0  0  0  0  0  0  0  0  0  0  0  0
    2.9072    1.5340    1.0269 H   0  0  0  0  0  0  0  0  0  0  0  0
    2.7280    4.4104    0.0094 H   0  0  0  0  0  0  0  0  0  0  0  0
    0.5774    2.9720    1.6575 H   0  0  0  0  0  0  0  0  0  0  0  0
    3.7651   -2.1394    1.2726 H   0  0  0  0  0  0  0  0  0  0  0  0
    3.8744   -1.8071   -1.2454 H   0  0  0  0  0  0  0  0  0  0  0  0
    1.3401   -2.0670    1.6431 H   0  0  0  0  0  0  0  0  0  0  0  0
    1.1370   -4.6361   -0.0082 H   0  0  0  0  0  0  0  0  0  0  0  0
    0.4231    3.6228   -1.3388 H   0  0  0  0  0  0  0  0  0  0  0  0
    3.7871    0.3874   -1.7075 H   0  0  0  0  0  0  0  0  0  0  0  0
    2.1518    0.0350   -2.3278 H   0  0  0  0  0  0  0  0  0  0  0  0
    0.2390   -1.7905   -0.7962 H   0  0  0  0  0  0  0  0  0  0  0  0
   -1.1611   -3.5972   -1.7701 H   0  0  0  0  0  0  0  0  0  0  0  0
   -0.1723   -2.7928   -3.0079 H   0  0  0  0  0  0  0  0  0  0  0  0
    0.3019   -4.3785   -2.4158 H   0  0  0  0  0  0  0  0  0  0  0  0
    4.4429    3.0567   -0.8221 H   0  0  0  0  0  0  0  0  0  0  0  0
    2.6745    3.1973    2.5745 H   0  0  0  0  0  0  0  0  0  0  0  0
    0.6322    5.3879    0.1602 H   0  0  0  0  0  0  0  0  0  0  0  0
    4.6510   -3.6467   -0.1633 H   0  0  0  0  0  0  0  0  0  0  0  0
    2.6070   -3.4498    2.9365 H   0  0  0  0  0  0  0  0  0  0  0  0
   -0.7834   -2.8222    1.0537 H   0  0  0  0  0  0  0  0  0  0  0  0
   -1.6889    3.5883   -2.0869 H   0  0  0  0  0  0  0  0  0  0  0  0
   -1.4831    1.8195   -2.0539 H   0  0  0  0  0  0  0  0  0  0  0  0
   -3.6958    3.4138   -0.6434 H   0  0  0  0  0  0  0  0  0  0  0  0
   -3.8979    2.5308   -2.1483 H   0  0  0  0  0  0  0  0  0  0  0  0
   -3.9259    0.0678   -2.1637 H   0  0  0  0  0  0  0  0  0  0  0  0
   -3.4489    2.2609    1.5098 H   0  0  0  0  0  0  0  0  0  0  0  0
   -3.9623    0.2323    2.7971 H   0  0  0  0  0  0  0  0  0  0  0  0
   -4.4422   -2.0544   -1.9634 H   0  0  0  0  0  0  0  0  0  0  0  0
   -4.4820   -1.9100    2.7196 H   0  0  0  0  0  0  0  0  0  0  0  0
  1 13  1  0  0  0  0
  1 21  1  0  0  0  0
  2 18  1  0  0  0  0
  2 22  1  0  0  0  0
  3 18  1  0  0  0  0
  3 23  1  0  0  0  0
  4 14  1  0  0  0  0
  4 48  1  0  0  0  0
  5 21  1  0  0  0  0
  5 25  1  0  0  0  0
  6 15  1  0  0  0  0
  6 49  1  0  0  0  0
  7 16  1  0  0  0  0
  7 50  1  0  0  0  0
  8 17  1  0  0  0  0
  8 51  1  0  0  0  0
  9 19  1  0  0  0  0
  9 52  1  0  0  0  0
 10 20  1  0  0  0  0
 10 53  1  0  0  0  0
 11 30  1  0  0  0  0
 11 61  1  0  0  0  0
 12 32  1  0  0  0  0
 12 62  1  0  0  0  0
 13 14  1  0  0  0  0
 13 22  1  0  0  0  0
 13 33  1  0  0  0  0
 14 15  1  0  0  0  0
 14 34  1  0  0  0  0
 15 16  1  0  0  0  0
 15 35  1  0  0  0  0
 16 21  1  0  0  0  0
 16 36  1  0  0  0  0
 17 18  1  0  0  0  0
 17 19  1  0  0  0  0
 17 37  1  0  0  0  0
 18 38  1  0  0  0  0
 19 20  1  0  0  0  0
 19 39  1  0  0  0  0
 20 23  1  0  0  0  0
 20 40  1  0  0  0  0
 21 41  1  0  0  0  0
 22 42  1  0  0  0  0
 22 43  1  0  0  0  0
 23 24  1  0  0  0  0
 23 44  1  0  0  0  0
 24 45  1  0  0  0  0
 24 46  1  0  0  0  0
 24 47  1  0  0  0  0
 25 26  1  0  0  0  0
 25 54  1  0  0  0  0
 25 55  1  0  0  0  0
 26 27  1  0  0  0  0
 26 56  1  0  0  0  0
 26 57  1  0  0  0  0
 27 28  2  0  0  0  0
 27 29  1  0  0  0  0
 28 30  1  0  0  0  0
 28 58  1  0  0  0  0
 29 31  2  0  0  0  0
 29 59  1  0  0  0  0
 30 32  2  0  0  0  0
 31 32  1  0  0  0  0
 31 60  1  0  0  0  0
M  END
> <PUBCHEM_COMPOUND_CID>
69634125

> <PUBCHEM_CONFORMER_RMSD>
1.4

> <PUBCHEM_CONFORMER_DIVERSEORDER>
1
111
77
116
40
117
27
152
150
149
45
61
114
71
153
81
162
120
11
132
82
148
128
151
154
156
158
49
135
91
23
163
68
115
14
112
103
159
143
30
84
138
57
69
123
131
36
137
108
136
134
20
140
167
74
63
155
142
25
65
37
54
101
55
87
58
32
53
129
12
125
118
166
64
35
113
107
9
60
5
147
13
139
93
157
72
164
76
75
34
28
88
98
94
46
83
100
102
24
39
48
29
109
10
80
127
26
51
92
50
96
59
31
21
67
145
141
110
79
16
95
41
126
66
124
90
19
2
85
78
73
130
97
146
6
99
15
4
33
121
62
161
86
104
8
105
106
52
133
160
122
47
17
44
18
7
89
42
144
56
165
119
3
43
22
38
70

> <PUBCHEM_MMFF94_PARTIAL_CHARGES>
42
1 -0.56
10 -0.68
11 -0.53
12 -0.53
13 0.28
14 0.28
15 0.28
16 0.28
17 0.28
18 0.56
19 0.28
2 -0.56
20 0.28
21 0.56
22 0.28
23 0.28
25 0.28
26 0.14
27 -0.14
28 -0.15
29 -0.15
3 -0.56
30 0.08
31 -0.15
32 0.08
4 -0.68
48 0.4
49 0.4
5 -0.56
50 0.4
51 0.4
52 0.4
53 0.4
58 0.15
59 0.15
6 -0.68
60 0.15
61 0.45
62 0.45
7 -0.68
8 -0.68
9 -0.68

> <PUBCHEM_EFFECTIVE_ROTOR_COUNT>
9.4

> <PUBCHEM_PHARMACOPHORE_FEATURES>
21
1 1 acceptor
1 10 acceptor
1 10 donor
1 11 donor
1 12 donor
1 2 acceptor
1 3 acceptor
1 4 acceptor
1 4 donor
1 5 acceptor
1 6 acceptor
1 6 donor
1 7 acceptor
1 7 donor
1 8 acceptor
1 8 donor
1 9 acceptor
1 9 donor
6 1 13 14 15 16 21 rings
6 27 28 29 30 31 32 rings
6 3 17 18 19 20 23 rings

> <PUBCHEM_HEAVY_ATOM_COUNT>
32

> <PUBCHEM_ATOM_DEF_STEREO_COUNT>
10

> <PUBCHEM_ATOM_UDEF_STEREO_COUNT>
0

> <PUBCHEM_BOND_DEF_STEREO_COUNT>
0

> <PUBCHEM_BOND_UDEF_STEREO_COUNT>
0

> <PUBCHEM_ISOTOPIC_ATOM_COUNT>
0

> <PUBCHEM_COMPONENT_COUNT>
1

> <PUBCHEM_CACTVS_TAUTO_COUNT>
18

> <PUBCHEM_CONFORMER_ID>
0426884D00000001

> <PUBCHEM_MMFF94_ENERGY>
85.5253

> <PUBCHEM_FEATURE_SELFOVERLAP>
106.706

> <PUBCHEM_SHAPE_FINGERPRINT>
10074138 170 17259590048210273904
114674 6 18337678645074132689
12156800 1 16763060496794707003
12553582 1 17909557159696646021
12788726 201 17474948723219284133
13122387 1 16680068809448005495
13561361 72 17469617659609232891
1361 2 17831870414708231811
14725015 67 16826134050253004911
20764821 26 18263927639872888059
20775530 9 18117003182440084141
21458453 9 18053348104123388314
21796203 349 18053412949112341538
22440779 20 15693241846694784078
238918 7 18194683906744387544
3737641 26 18339660969923443788
392239 28 18194673766680159602
445580 102 18265060132544123527
463206 1 18121221982706818625
5309563 4 18410303518761560669
6004065 56 17837753545030935677
6433294 58 18264772064813868421
66674814 147 17258191495283835807
86090 222 18046643470858225323
9795274 37 18262800644638972269

> <PUBCHEM_SHAPE_MULTIPOLES>
588.11
8.64
7.42
1.83
6.96
2.13
-0.23
-3.35
-1.08
-5.52
-1.98
0.26
-0.78
0.86

> <PUBCHEM_SHAPE_SELFOVERLAP>
1227.335

> <PUBCHEM_SHAPE_VOLUME>
328.8

> <PUBCHEM_COORDINATE_TYPE>
2
5
10

$$$$
