197020
  -OEChem-02092118583D

 31 32  0     1  0  0  0  0  0999 V2000
   -1.6889   -0.5366    1.0164 O   0  0  0  0  0  0  0  0  0  0  0  0
   -1.5214    2.3590   -1.0923 O   0  0  0  0  0  0  0  0  0  0  0  0
   -3.7102    1.5689    0.3301 O   0  0  0  0  0  0  0  0  0  0  0  0
   -2.6560   -3.0584    0.2597 O   0  0  0  0  0  0  0  0  0  0  0  0
    1.2624    2.2954    0.7333 O   0  0  0  0  0  0  0  0  0  0  0  0
    5.2269    0.0175   -0.2034 O   0  0  0  0  0  0  0  0  0  0  0  0
    0.4030    0.2021    0.2799 N   0  0  0  0  0  0  0  0  0  0  0  0
    2.7671    0.6804    0.2047 N   0  0  0  0  0  0  0  0  0  0  0  0
    4.3036   -0.9783   -0.3394 N   0  0  0  0  0  0  0  0  0  0  0  0
   -1.6594    0.9834   -0.8013 C   0  0  2  0  0  0  0  0  0  0  0  0
   -3.0953    0.5974   -0.5158 C   0  0  1  0  0  0  0  0  0  0  0  0
   -0.9637    0.5864    0.4894 C   0  0  1  0  0  0  0  0  0  0  0  0
   -2.9272   -0.6850    0.2877 C   0  0  1  0  0  0  0  0  0  0  0  0
   -2.8194   -1.9305   -0.5819 C   0  0  0  0  0  0  0  0  0  0  0  0
    0.6791   -1.1098   -0.0734 C   0  0  0  0  0  0  0  0  0  0  0  0
    1.4730    1.1217    0.4221 C   0  0  0  0  0  0  0  0  0  0  0  0
    1.9163   -1.5533   -0.2880 C   0  0  0  0  0  0  0  0  0  0  0  0
    3.0102   -0.5602   -0.1277 C   0  0  0  0  0  0  0  0  0  0  0  0
   -1.2856    0.4093   -1.6577 H   0  0  0  0  0  0  0  0  0  0  0  0
   -3.7132    0.4971   -1.4119 H   0  0  0  0  0  0  0  0  0  0  0  0
   -0.9986    1.3952    1.2289 H   0  0  0  0  0  0  0  0  0  0  0  0
   -3.7189   -0.8172    1.0340 H   0  0  0  0  0  0  0  0  0  0  0  0
   -1.9795   -1.8905   -1.2795 H   0  0  0  0  0  0  0  0  0  0  0  0
   -3.7392   -2.0662   -1.1604 H   0  0  0  0  0  0  0  0  0  0  0  0
   -0.5709    2.5455   -1.1761 H   0  0  0  0  0  0  0  0  0  0  0  0
   -3.2365    1.5964    1.1780 H   0  0  0  0  0  0  0  0  0  0  0  0
   -0.1388   -1.8052   -0.1771 H   0  0  0  0  0  0  0  0  0  0  0  0
   -2.6032   -3.8404   -0.3158 H   0  0  0  0  0  0  0  0  0  0  0  0
    2.1402   -2.5754   -0.5626 H   0  0  0  0  0  0  0  0  0  0  0  0
    4.6029   -1.8973   -0.6429 H   0  0  0  0  0  0  0  0  0  0  0  0
    5.9014   -0.4072    0.3532 H   0  0  0  0  0  0  0  0  0  0  0  0
  1 12  1  0  0  0  0
  1 13  1  0  0  0  0
  2 10  1  0  0  0  0
  2 25  1  0  0  0  0
  3 11  1  0  0  0  0
  3 26  1  0  0  0  0
  4 14  1  0  0  0  0
  4 28  1  0  0  0  0
  5 16  2  0  0  0  0
  6  9  1  0  0  0  0
  6 31  1  0  0  0  0
  7 12  1  0  0  0  0
  7 15  1  0  0  0  0
  7 16  1  0  0  0  0
  8 16  1  0  0  0  0
  8 18  2  0  0  0  0
  9 18  1  0  0  0  0
  9 30  1  0  0  0  0
 10 11  1  0  0  0  0
 10 12  1  0  0  0  0
 10 19  1  0  0  0  0
 11 13  1  0  0  0  0
 11 20  1  0  0  0  0
 12 21  1  0  0  0  0
 13 14  1  0  0  0  0
 13 22  1  0  0  0  0
 14 23  1  0  0  0  0
 14 24  1  0  0  0  0
 15 17  2  0  0  0  0
 15 27  1  0  0  0  0
 17 18  1  0  0  0  0
 17 29  1  0  0  0  0
M  END
> <PUBCHEM_COMPOUND_CID>
197020

> <PUBCHEM_CONFORMER_RMSD>
0.6

> <PUBCHEM_CONFORMER_DIVERSEORDER>
1
19
26
15
22
9
29
20
24
17
10
6
11
18
25
31
14
8
16
30
21
13
23
28
5
4
27
7
12
2
3

> <PUBCHEM_MMFF94_PARTIAL_CHARGES>
25
1 -0.56
10 0.28
11 0.28
12 0.58
13 0.28
14 0.28
15 -0.04
16 0.84
17 -0.14
18 0.49
2 -0.68
25 0.4
26 0.4
27 0.15
28 0.4
29 0.15
3 -0.68
30 0.4
31 0.4
4 -0.68
5 -0.57
6 -0.38
7 -0.47
8 -0.66
9 -0.47

> <PUBCHEM_EFFECTIVE_ROTOR_COUNT>
4

> <PUBCHEM_PHARMACOPHORE_FEATURES>
12
1 1 acceptor
1 2 acceptor
1 2 donor
1 3 acceptor
1 3 donor
1 4 acceptor
1 4 donor
1 5 acceptor
1 8 donor
1 9 donor
5 1 10 11 12 13 rings
6 7 8 15 16 17 18 rings

> <PUBCHEM_HEAVY_ATOM_COUNT>
18

> <PUBCHEM_ATOM_DEF_STEREO_COUNT>
4

> <PUBCHEM_ATOM_UDEF_STEREO_COUNT>
0

> <PUBCHEM_BOND_DEF_STEREO_COUNT>
0

> <PUBCHEM_BOND_UDEF_STEREO_COUNT>
0

> <PUBCHEM_ISOTOPIC_ATOM_COUNT>
0

> <PUBCHEM_COMPONENT_COUNT>
1

> <PUBCHEM_CACTVS_TAUTO_COUNT>
5

> <PUBCHEM_CONFORMER_ID>
0003019C00000001

> <PUBCHEM_MMFF94_ENERGY>
56.0134

> <PUBCHEM_FEATURE_SELFOVERLAP>
60.961

> <PUBCHEM_SHAPE_FINGERPRINT>
10608611 8 18411694404748972729
11132069 177 18413106165073541234
12032990 46 18272375265503987278
12500047 106 18409725123841881943
12932764 1 17967522454882477089
14115302 16 18336838506357799693
14965852 173 18412262852407855601
15196674 1 18413107286291945026
15219456 202 18411978095923416513
15775835 57 18262239919552352883
16945 1 18263908982682822529
19107657 46 18413389821730224878
19141452 34 18342181111357813667
200 152 17775559836543774679
20201158 50 18339923718763089690
20645477 56 18336265643899414253
21501502 16 18337111262640459437
221490 88 18267869569600370994
22213442 358 18412826906141608694
23402539 116 17458061560556903502
23557571 272 18341338846099529302
23559900 14 18270388520632636849
238 59 15803792165594429533
2748010 2 18266167525537029741
2871803 45 18265040513413596791
3286 77 18200591526537842668
3312278 4 18343023263653770450
34934 24 18339921511371627642
5104073 3 18342174492485884474
5493415 88 18343018925847532362
69090 78 18337948996549406615
74978 22 18342173362772256905
8809292 202 18409450297205877427

> <PUBCHEM_SHAPE_MULTIPOLES>
320.27
7.27
2.4
0.83
6.23
0.47
0.04
1.29
0.67
-1.74
0.09
-0.31
-0.16
0.53

> <PUBCHEM_SHAPE_SELFOVERLAP>
674.063

> <PUBCHEM_SHAPE_VOLUME>
179.6

> <PUBCHEM_COORDINATE_TYPE>
2
5
10

$$$$
