Untitled
  xed2sdf_05210316543D
 
 98101  0  0  1  0  0  0  0  0999 V2000
   10.0467   -8.3987   23.5340 S   0  0  0  0  0  0  0  0  0  0  0  0
   14.3884    8.3958   14.9641 S   0  0  0  0  0  0  0  0  0  0  0  0
   12.6872    3.4793   18.4804 O   0  0  0  0  0  0  0  0  0  0  0  0
   12.0147    0.9401   22.0157 O   0  0  0  0  0  0  0  0  0  0  0  0
   14.5451    7.2698   18.0329 O   0  0  0  0  0  0  0  0  0  0  0  0
   14.8758    5.1390   18.6703 O   0  0  0  0  0  0  0  0  0  0  0  0
    9.5985   -2.7020   21.2696 O   0  0  0  0  0  0  0  0  0  0  0  0
   10.2410    0.9551   20.5902 N   0  0  0  0  0  0  0  0  0  0  0  0
   13.0615    6.2971   19.4507 N   0  0  0  0  0  0  0  0  0  0  0  0
   10.8430   -1.5907   22.7807 N   0  0  0  0  0  0  0  0  0  0  0  0
   11.2824   -3.8173   22.2803 N   0  0  0  0  0  0  0  0  0  0  0  0
    9.6308   -5.8558   23.4949 N   0  0  0  0  0  0  0  0  0  0  0  0
   15.1983    6.3761   13.5895 N   0  0  0  0  0  0  0  0  0  0  0  0
   10.9240    1.8121   19.6082 C   0  0  0  0  0  0  0  0  0  0  0  0
   10.9123    3.2538   20.1569 C   0  0  0  0  0  0  0  0  0  0  0  0
   11.7726    4.2150   19.3095 C   0  0  0  0  0  0  0  0  0  0  0  0
   12.5502    5.1669   20.2405 C   0  0  0  0  0  0  0  0  0  0  0  0
   10.2490    1.7482   18.2197 C   0  0  0  0  0  0  0  0  0  0  0  0
   11.6356    5.6902   21.3698 C   0  0  0  0  0  0  0  0  0  0  0  0
   10.0680   -0.3586   22.5723 C   0  0  0  0  0  0  0  0  0  0  0  0
    9.6885    0.3124   23.9104 C   0  0  0  0  0  0  0  0  0  0  0  0
   10.8851    0.5821   21.7095 C   0  0  0  0  0  0  0  0  0  0  0  0
   10.2457    0.3714   17.5708 C   0  0  0  0  0  0  0  0  0  0  0  0
   12.0516    5.2786   22.7749 C   0  0  0  0  0  0  0  0  0  0  0  0
    8.7619    1.5116   23.6564 C   0  0  0  0  0  0  0  0  0  0  0  0
    8.9410   -0.6746   24.8227 C   0  0  0  0  0  0  0  0  0  0  0  0
    9.3021    0.0573   16.6172 C   0  0  0  0  0  0  0  0  0  0  0  0
   11.1839   -0.5713   17.9321 C   0  0  0  0  0  0  0  0  0  0  0  0
   14.1923    6.1585   18.7282 C   0  0  0  0  0  0  0  0  0  0  0  0
   11.9180    6.1618   23.8238 C   0  0  0  0  0  0  0  0  0  0  0  0
   12.5680    4.0224   23.0086 C   0  0  0  0  0  0  0  0  0  0  0  0
   10.5339   -2.7037   22.0787 C   0  0  0  0  0  0  0  0  0  0  0  0
    9.2954   -1.1872   16.0296 C   0  0  0  0  0  0  0  0  0  0  0  0
   11.1796   -1.8161   17.3446 C   0  0  0  0  0  0  0  0  0  0  0  0
   12.2954    5.7931   25.0950 C   0  0  0  0  0  0  0  0  0  0  0  0
   12.9447    3.6511   24.2790 C   0  0  0  0  0  0  0  0  0  0  0  0
   10.2348   -2.1250   16.3932 C   0  0  0  0  0  0  0  0  0  0  0  0
   12.8084    4.5368   25.3233 C   0  0  0  0  0  0  0  0  0  0  0  0
   10.9743   -5.0361   21.5139 C   0  0  0  0  0  0  0  0  0  0  0  0
   12.3992   -3.8574   23.2441 C   0  0  0  0  0  0  0  0  0  0  0  0
   15.7314    7.1742   17.2245 C   0  0  0  0  0  0  0  0  0  0  0  0
   10.4814   -6.1357   22.4332 C   0  0  0  0  0  0  0  0  0  0  0  0
   15.3504    7.1350   15.7594 C   0  0  0  0  0  0  0  0  0  0  0  0
    9.3002   -6.9188   24.1743 C   0  0  0  0  0  0  0  0  0  0  0  0
   10.8138   -7.4027   22.2853 C   0  0  0  0  0  0  0  0  0  0  0  0
    8.3853   -6.8846   25.3795 C   0  0  0  0  0  0  0  0  0  0  0  0
    8.1743   -8.2816   25.9818 C   0  0  0  0  0  0  0  0  0  0  0  0
    7.0127   -6.2959   25.0239 C   0  0  0  0  0  0  0  0  0  0  0  0
   15.6612    6.1957   14.8857 C   0  0  0  0  0  0  0  0  0  0  0  0
   14.5141    7.4759   13.4497 C   0  0  0  0  0  0  0  0  0  0  0  0
   11.8624    1.4911   19.4793 H   0  0  0  0  0  0  0  0  0  0  0  0
   11.1708    4.7486   18.7152 H   0  0  0  0  0  0  0  0  0  0  0  0
   13.3110    4.6691   20.6567 H   0  0  0  0  0  0  0  0  0  0  0  0
    9.2096   -0.5862   22.1126 H   0  0  0  0  0  0  0  0  0  0  0  0
   13.4234    3.0638   19.0251 H   0  0  0  0  0  0  0  0  0  0  0  0
    9.4165    0.6903   20.4333 H   0  0  0  0  0  0  0  0  0  0  0  0
   12.6201    7.0599   19.4498 H   0  0  0  0  0  0  0  0  0  0  0  0
   11.5153   -1.5872   23.3448 H   0  0  0  0  0  0  0  0  0  0  0  0
   11.2641    3.2453   21.0929 H   0  0  0  0  0  0  0  0  0  0  0  0
    9.9687    3.5836   20.1249 H   0  0  0  0  0  0  0  0  0  0  0  0
   10.7280    2.3801   17.6104 H   0  0  0  0  0  0  0  0  0  0  0  0
    9.2897    1.9909   18.3632 H   0  0  0  0  0  0  0  0  0  0  0  0
   10.7101    5.3491   21.2051 H   0  0  0  0  0  0  0  0  0  0  0  0
   11.6986    6.6878   21.3414 H   0  0  0  0  0  0  0  0  0  0  0  0
   10.5358    0.6096   24.3509 H   0  0  0  0  0  0  0  0  0  0  0  0
    7.8995    1.3653   24.1417 H   0  0  0  0  0  0  0  0  0  0  0  0
    9.1958    2.3498   23.9863 H   0  0  0  0  0  0  0  0  0  0  0  0
    8.5868    1.6000   22.6759 H   0  0  0  0  0  0  0  0  0  0  0  0
    8.0363   -0.3034   25.0319 H   0  0  0  0  0  0  0  0  0  0  0  0
    8.8446   -1.5560   24.3599 H   0  0  0  0  0  0  0  0  0  0  0  0
    9.4561   -0.8063   25.6697 H   0  0  0  0  0  0  0  0  0  0  0  0
    8.6185    0.7370   16.3507 H   0  0  0  0  0  0  0  0  0  0  0  0
   11.8710   -0.3499   18.6242 H   0  0  0  0  0  0  0  0  0  0  0  0
   11.5447    7.0753   23.6611 H   0  0  0  0  0  0  0  0  0  0  0  0
   12.6693    3.3773   22.2512 H   0  0  0  0  0  0  0  0  0  0  0  0
    8.6081   -1.4101   15.3384 H   0  0  0  0  0  0  0  0  0  0  0  0
   11.8633   -2.4963   17.6095 H   0  0  0  0  0  0  0  0  0  0  0  0
   12.1969    6.4380   25.8527 H   0  0  0  0  0  0  0  0  0  0  0  0
   13.3176    2.7380   24.4433 H   0  0  0  0  0  0  0  0  0  0  0  0
   10.2306   -3.0293   15.9666 H   0  0  0  0  0  0  0  0  0  0  0  0
   13.0818    4.2679   26.2467 H   0  0  0  0  0  0  0  0  0  0  0  0
   11.7992   -5.3452   21.0405 H   0  0  0  0  0  0  0  0  0  0  0  0
   10.2557   -4.8261   20.8509 H   0  0  0  0  0  0  0  0  0  0  0  0
   12.8079   -4.7701   23.2308 H   0  0  0  0  0  0  0  0  0  0  0  0
   13.0872   -3.1769   22.9924 H   0  0  0  0  0  0  0  0  0  0  0  0
   12.0596   -3.6528   24.1620 H   0  0  0  0  0  0  0  0  0  0  0  0
   16.2311    6.3416   17.4628 H   0  0  0  0  0  0  0  0  0  0  0  0
   16.3114    7.9713   17.3929 H   0  0  0  0  0  0  0  0  0  0  0  0
   11.4156   -7.7535   21.5676 H   0  0  0  0  0  0  0  0  0  0  0  0
    8.8384   -6.3021   26.0545 H   0  0  0  0  0  0  0  0  0  0  0  0
    7.1950   -8.4827   26.0024 H   0  0  0  0  0  0  0  0  0  0  0  0
    8.6467   -8.9645   25.4247 H   0  0  0  0  0  0  0  0  0  0  0  0
    8.5440   -8.3070   26.9108 H   0  0  0  0  0  0  0  0  0  0  0  0
    6.3024   -6.9566   25.2663 H   0  0  0  0  0  0  0  0  0  0  0  0
    6.8686   -5.4455   25.5301 H   0  0  0  0  0  0  0  0  0  0  0  0
    6.9733   -6.1020   24.0438 H   0  0  0  0  0  0  0  0  0  0  0  0
   16.2022    5.3955   15.1443 H   0  0  0  0  0  0  0  0  0  0  0  0
   14.1050    7.7696   12.5858 H   0  0  0  0  0  0  0  0  0  0  0  0
  1 44  1  0
  1 45  1  0
  2 43  1  0
  2 50  1  0
  4 22  2  0
  5 29  1  0
  5 41  1  0
  6 29  2  0
  7 32  2  0
  8 22  1  0
  9 29  1  0
 10 32  1  0
 11 32  1  0
 11 39  1  0
 11 40  1  0
 12 42  1  0
 12 44  2  0
 13 49  1  0
 13 50  2  0
 14  8  1  0
 14 15  1  0
 14 18  1  0
 15 16  1  0
 16  3  1  0
 16 17  1  0
 17  9  1  0
 17 19  1  0
 18 23  1  0
 19 24  1  0
 20 10  1  0
 20 21  1  0
 20 22  1  0
 21 25  1  0
 21 26  1  0
 23 27  2  0
 23 28  1  0
 24 30  2  0
 24 31  1  0
 27 33  1  0
 28 34  2  0
 30 35  1  0
 31 36  2  0
 33 37  2  0
 34 37  1  0
 35 38  2  0
 36 38  1  0
 39 42  1  0
 41 43  1  0
 42 45  2  0
 43 49  2  0
 44 46  1  0
 46 47  1  0
 46 48  1  0
  3 55  1  0
  8 56  1  0
  9 57  1  0
 10 58  1  0
 14 51  1  0
 15 59  1  0
 15 60  1  0
 16 52  1  0
 17 53  1  0
 18 61  1  0
 18 62  1  0
 19 63  1  0
 19 64  1  0
 20 54  1  0
 21 65  1  0
 25 66  1  0
 25 67  1  0
 25 68  1  0
 26 69  1  0
 26 70  1  0
 26 71  1  0
 27 72  1  0
 28 73  1  0
 30 74  1  0
 31 75  1  0
 33 76  1  0
 34 77  1  0
 35 78  1  0
 36 79  1  0
 37 80  1  0
 38 81  1  0
 39 82  1  0
 39 83  1  0
 40 84  1  0
 40 85  1  0
 40 86  1  0
 41 87  1  0
 41 88  1  0
 45 89  1  0
 46 90  1  0
 47 91  1  0
 47 92  1  0
 47 93  1  0
 48 94  1  0
 48 95  1  0
 48 96  1  0
 49 97  1  0
 50 98  1  0
M  END
>  <BioMolTech Lead Finder dG>
-11.357

>  <BioMolTech Lead Finder VSscore>
-12.843

>  <BioMolTech Lead Finder Rank score>
-12.328

>  <BioMolTech Lead Finder LE>
-0.227

>  <BioMolTech Lead Finder Structure Name>
/var/folders/xd/y7jw_xv579q2qqq7kks92xd80000gn/T/LeadFinder_24509_1/Ligand_1.sdf

>  <BioMolTech Lead Finder SDF id>
0

>  <BioMolTech Lead Finder Pose rank>
0

>  <BioMolTech Lead Finder version>
2001 1, 19 January 2019

>  <PUBCHEM_COMPOUND_CID>
392622

>  <PUBCHEM_COMPOUND_CANONICALIZED>
1

>  <PUBCHEM_CACTVS_COMPLEXITY>
1040

>  <PUBCHEM_CACTVS_HBOND_ACCEPTOR>
9

>  <PUBCHEM_CACTVS_HBOND_DONOR>
4

>  <PUBCHEM_CACTVS_ROTATABLE_BOND>
18

>  <PUBCHEM_CACTVS_SUBSKEYS>
AAADcfB/uABgAAAAAAAAAAAAAAAAAWLAAAAwYAAAAAAAAAAB9AAAHgQQCAAADTzl3ga/iZPIFgisAzV3XACC8KBxCjhI2J24bImKdDLgsTmcYAgulgL4qAeQwPAOAAAAAAAAAAAAAAAAAAAAAAAAAAAAAA==

>  <PUBCHEM_IUPAC_OPENEYE_NAME>
thiazol-5-ylmethyl N-[(1S,2S,4S)-1-benzyl-2-hydroxy-4-[[(2S)-2-[[(2-isopropylthiazol-4-yl)methyl-methyl-carbamoyl]amino]-3-methyl-butanoyl]amino]-5-phenyl-pentyl]carbamate

>  <PUBCHEM_IUPAC_CAS_NAME>
N-[(2S,3S,5S)-3-hydroxy-5-[[(2S)-3-methyl-2-[[[methyl-[(2-propan-2-yl-4-thiazolyl)methyl]amino]-oxomethyl]amino]-1-oxobutyl]amino]-1,6-diphenylhexan-2-yl]carbamic acid 5-thiazolylmethyl ester

>  <PUBCHEM_IUPAC_NAME_MARKUP>
1,3-thiazol-5-ylmethyl <I>N</I>-[(2<I>S</I>,3<I>S</I>,5<I>S</I>)-3-hydroxy-5-[[(2<I>S</I>)-3-methyl-2-[[methyl-[(2-propan-2-yl-1,3-thiazol-4-yl)methyl]carbamoyl]amino]butanoyl]amino]-1,6-diphenylhexan

>  <PUBCHEM_IUPAC_NAME>
1,3-thiazol-5-ylmethyl N-[(2S,3S,5S)-3-hydroxy-5-[[(2S)-3-methyl-2-[[methyl-[(2-propan-2-yl-1,3-thiazol-4-yl)methyl]carbamoyl]amino]butanoyl]amino]-1,6-diphenylhexan-2-yl]carbamate

>  <PUBCHEM_IUPAC_SYSTEMATIC_NAME>
1,3-thiazol-5-ylmethyl N-[(2S,3S,5S)-5-[[(2S)-3-methyl-2-[[methyl-[(2-propan-2-yl-1,3-thiazol-4-yl)methyl]carbamoyl]amino]butanoyl]amino]-3-oxidanyl-1,6-diphenyl-hexan-2-yl]carbamate

>  <PUBCHEM_IUPAC_TRADITIONAL_NAME>
N-[(1S,2S,4S)-1-benzyl-2-hydroxy-4-[[(2S)-2-[[(2-isopropylthiazol-4-yl)methyl-methyl-carbamoyl]amino]-3-methyl-butanoyl]amino]-5-phenyl-pentyl]carbamic acid thiazol-5-ylmethyl ester

>  <PUBCHEM_IUPAC_INCHI>
InChI=1S/C37H48N6O5S2/c1-24(2)33(42-36(46)43(5)20-29-22-49-35(40-29)25(3)4)34(45)39-28(16-26-12-8-6-9-13-26)18-32(44)31(17-27-14-10-7-11-15-27)41-37(47)48-21-30-19-38-23-50-30/h6-15,19,22-25,28,31-33,

>  <PUBCHEM_IUPAC_INCHIKEY>
NCDNCNXCDXHOMX-XGKFQTDJSA-N

>  <PUBCHEM_XLOGP3_AA>
6

>  <PUBCHEM_EXACT_MASS>
720.312761

>  <PUBCHEM_MOLECULAR_FORMULA>
C37H48N6O5S2

>  <PUBCHEM_MOLECULAR_WEIGHT>
720.9

>  <PUBCHEM_OPENEYE_CAN_SMILES>
CC(C)C1=NC(=CS1)CN(C)C(=O)NC(C(C)C)C(=O)NC(CC2=CC=CC=C2)CC(C(CC3=CC=CC=C3)NC(=O)OCC4=CN=CS4)O

>  <PUBCHEM_OPENEYE_ISO_SMILES>
CC(C)C1=NC(=CS1)CN(C)C(=O)N[C@@H](C(C)C)C(=O)N[C@@H](CC2=CC=CC=C2)C[C@@H]([C@H](CC3=CC=CC=C3)NC(=O)OCC4=CN=CS4)O

>  <PUBCHEM_CACTVS_TPSA>
202

>  <PUBCHEM_MONOISOTOPIC_WEIGHT>
720.312761

>  <PUBCHEM_TOTAL_CHARGE>
0

>  <PUBCHEM_HEAVY_ATOM_COUNT>
50

>  <PUBCHEM_ATOM_DEF_STEREO_COUNT>
4

>  <PUBCHEM_ATOM_UDEF_STEREO_COUNT>
0

>  <PUBCHEM_BOND_DEF_STEREO_COUNT>
0

>  <PUBCHEM_BOND_UDEF_STEREO_COUNT>
0

>  <PUBCHEM_ISOTOPIC_ATOM_COUNT>
0

>  <PUBCHEM_COMPONENT_COUNT>
1

>  <PUBCHEM_CACTVS_TAUTO_COUNT>
-1

>  <PUBCHEM_COORDINATE_TYPE>
1
5
255

>  <PUBCHEM_BONDANNOTATIONS>
1  44  8
1  45  8
20  10  6
12  42  8
12  44  8
13  49  8
13  50  8
2  43  8
2  50  8
23  27  8
23  28  8
24  30  8
24  31  8
27  33  8
28  34  8
16  3  5
30  35  8
31  36  8
33  37  8
34  37  8
35  38  8
36  38  8
42  45  8
43  49  8
14  8  6
17  9  5

>  <LF dG>
-11.357

>  <LF VSscore>
-12.843

>  <LF Rank Score>
-12.328

>  <LF LE>
-0.227

>  <Preferred Pose_cresset>
true

>  <Favorite_cresset>
false

>  <Protein_cresset>
6Y2F_P

>  <MW_cresset>
720.9

>  <#Atoms_cresset>
50

>  <SlogP_cresset>
6.3

>  <TPSA_cresset>
145.8

>  <Flexibility_cresset>
19

>  <#RB_cresset>
22

>  <Rof5_cresset>
3

>  <Filename_cresset>
Ritonavir.sdf

>  <Confs_cresset>
0

>  <Poses_cresset>
10

>  <_cresset_fieldpoints>
    -5       9.017678      -2.453231      19.581318    -15.3914
    -5       8.849890      -4.047068      23.461929    -12.4740
    -5      12.222795       0.661608      15.325346     -7.6173
    -5      15.360067       4.856164      12.374619     -7.7339
    -5      12.342479      -1.390472      20.866089     -8.2623
    -5      13.159036       0.448386      23.209301     -8.7153
    -5      13.846949       9.595688      17.761292     -1.3287
    -5      15.109785       5.755616      23.239458     -5.2437
    -5       9.741537       4.319354      25.085289     -3.4326
    -5      13.437121       4.101885      16.914354    -12.9516
    -6      11.162790      -8.661049      26.722019      1.7567
    -6      13.179276      -7.194336      20.389952      3.9959
    -6      12.591502      -1.492028      25.114754      4.7947
    -6      11.038858       8.315193      19.814648      6.3971
    -6      12.998240       9.582210      11.953854      2.3459
    -6      14.069083       2.469899      20.539680      2.6511
    -6       7.637337       1.813928      20.274029      4.5533
    -6      13.656051       2.508393      27.570889      1.9033
    -6      12.631903       6.108915      28.178423      2.2572
    -6      16.484777      10.335081      17.174311      1.0997
    -6       8.122267      -6.393306      28.576305      1.7307
    -7      11.481235      -7.808104      26.476723     -1.9206
    -7       8.245731      -3.788592      23.349758     -3.6772
    -7      12.199406      -6.333762      25.444983     -2.3119
    -7      12.613781      10.219757      12.828711     -0.9042
    -7      12.235523       6.169639      16.616920     -3.1352
    -7      13.365146      10.583300      12.680882     -0.9035
    -7      13.937179       1.895516      20.894655     -3.5601
    -7      13.104380       0.266256      23.976437     -2.9669
    -7      12.771578      -1.411520      20.747787     -3.6268
    -7      12.842445       4.961469      16.438900     -3.1102
    -7       7.076519       0.274886      20.956266     -2.1640
    -7      10.036528       7.079309      18.960209     -2.0264
    -7      14.897011       4.345427      12.151054     -0.9736
    -7      17.559301       9.445477      15.077524     -1.5248
    -7      16.182365       5.023027      11.751390     -0.9712
    -7       8.923900       5.927422      19.405491     -2.0204
    -7       8.640688       4.571439      18.048676     -2.0608
    -7      12.269716       0.751537      14.958544     -1.8887
    -7       8.837776       3.402599      15.917118     -1.6216
    -7       7.666535       2.431505      20.445787     -2.7598
    -7      12.115935      -1.292525      25.686928     -2.1623
    -7       6.692855      -0.738424      22.403446     -2.0411
    -7       9.571212      -3.823759      24.821064     -3.7358
    -7      13.393831       1.763614      17.105164     -2.8195
    -7       6.603735       0.370627      14.627028     -0.9986
    -7       8.781130       4.416633      22.444679     -3.0297
    -7      10.194784       8.440006      25.580734     -0.9970
    -7      11.582150       9.117317      25.404997     -0.9998
    -7       8.371599      -3.853194      14.138762     -0.9688
    -7       8.454535      -1.484045      19.695984     -3.5899
    -7      10.875078      -5.002883      18.270950     -1.8323
    -7      12.733515       5.834484      28.463039     -0.9696
    -7      10.463354       2.390079      26.356194     -2.4021
    -7      14.036079      -6.576959      21.795506     -1.7087
    -7      18.795109       6.548195      16.233898     -1.2555
    -7      14.621492       7.177500      21.590363     -2.7376
    -7      10.741209      -6.895127      18.877052     -1.3614
    -7       6.973798      -6.293355      28.323498     -1.4953
    -7       6.830734      -8.885771      22.987709     -2.2683
    -7      16.832890       5.623353      11.782979     -0.9705
    -8       7.974151      -7.232780      25.246500      5.8563
    -8      10.227905      -7.472252      23.073278      5.3844
    -8      14.942490       7.489237      14.973643      5.3170
    -8      12.134132       4.752453      21.655140      6.0702
    -8      11.582409       4.489944      20.589096      6.1231
    -8      10.691772       2.718035      19.128231      5.3547
    -8       9.157970       0.244466      23.775192      5.9573
    -8      11.032007      -6.316265      21.686747      4.6116
    -8      10.800547       0.823421      18.314766      5.6613
    -8      12.428379       4.908111      24.042019      7.2091
    -8      10.241544      -0.873154      16.982517      7.1877
    -8      13.020537      -3.899845      23.788658      2.5970

$$$$
