Untitled
  xed2sdf_05210316543D
 
 73 77  0  0  1  0  0  0  0  0999 V2000
   11.3523    3.7763   22.3409 O   0  0  0  0  0  0  0  0  0  0  0  0
   13.9886    4.4274   24.4053 O   0  0  0  0  0  0  0  0  0  0  0  0
   15.2916    5.9438   25.7611 O   0  0  0  0  0  0  0  0  0  0  0  0
   14.5321    5.1334   20.9531 O   0  0  0  0  0  0  0  0  0  0  0  0
   12.9749    4.6914   18.5730 O   0  0  0  0  0  0  0  0  0  0  0  0
    9.6176    2.4870   21.3432 O   0  0  0  0  0  0  0  0  0  0  0  0
   10.8512    2.7640   18.8092 O   0  0  0  0  0  0  0  0  0  0  0  0
   13.9043    4.8137   28.0737 O   0  0  0  0  0  0  0  0  0  0  0  0
   15.3438    2.3954   27.9697 O   0  0  0  0  0  0  0  0  0  0  0  0
   17.7642    3.3277   26.7049 O   0  0  0  0  0  0  0  0  0  0  0  0
    9.4571   -1.0793   22.3930 O   0  0  0  0  0  0  0  0  0  0  0  0
    8.7402    2.6155   23.8414 O   0  0  0  0  0  0  0  0  0  0  0  0
    7.7532    1.5306   26.0713 O   0  0  0  0  0  0  0  0  0  0  0  0
    7.9416   -3.1826   26.3313 O   0  0  0  0  0  0  0  0  0  0  0  0
    8.5490   -0.5221   16.9270 O   0  0  0  0  0  0  0  0  0  0  0  0
   11.1983   -0.9569   16.3194 O   0  0  0  0  0  0  0  0  0  0  0  0
   12.7489    4.1416   22.3194 C   0  0  0  0  0  0  0  0  0  0  0  0
   13.1229    4.8626   21.0053 C   0  0  0  0  0  0  0  0  0  0  0  0
   12.7161    3.9931   19.7998 C   0  0  0  0  0  0  0  0  0  0  0  0
   11.2259    3.6197   19.8981 C   0  0  0  0  0  0  0  0  0  0  0  0
   14.0527    4.1210   26.8253 C   0  0  0  0  0  0  0  0  0  0  0  0
   14.1040    5.1275   25.6593 C   0  0  0  0  0  0  0  0  0  0  0  0
   15.3349    3.2653   26.8284 C   0  0  0  0  0  0  0  0  0  0  0  0
   16.5955    4.1534   26.8284 C   0  0  0  0  0  0  0  0  0  0  0  0
   10.9877    2.9121   21.2447 C   0  0  0  0  0  0  0  0  0  0  0  0
   13.0577    5.0614   23.5119 C   0  0  0  0  0  0  0  0  0  0  0  0
   16.5098    5.1761   25.6737 C   0  0  0  0  0  0  0  0  0  0  0  0
   17.7152    6.1289   25.7232 C   0  0  0  0  0  0  0  0  0  0  0  0
    9.3902    1.3276   22.0849 C   0  0  0  0  0  0  0  0  0  0  0  0
    9.6131    0.0511   21.6202 C   0  0  0  0  0  0  0  0  0  0  0  0
    8.9050    1.4732   23.4138 C   0  0  0  0  0  0  0  0  0  0  0  0
    8.6264    0.2919   24.2053 C   0  0  0  0  0  0  0  0  0  0  0  0
   10.0636   -0.2262   20.2335 C   0  0  0  0  0  0  0  0  0  0  0  0
    8.9306   -0.9459   23.6367 C   0  0  0  0  0  0  0  0  0  0  0  0
    8.0771    0.3445   25.4973 C   0  0  0  0  0  0  0  0  0  0  0  0
    8.6947   -2.0987   24.3639 C   0  0  0  0  0  0  0  0  0  0  0  0
    9.1188   -0.2493   19.2150 C   0  0  0  0  0  0  0  0  0  0  0  0
   11.3956   -0.4406   19.9048 C   0  0  0  0  0  0  0  0  0  0  0  0
    7.8560   -0.8124   26.1970 C   0  0  0  0  0  0  0  0  0  0  0  0
    8.1646   -2.0409   25.6327 C   0  0  0  0  0  0  0  0  0  0  0  0
    9.4892   -0.4946   17.9141 C   0  0  0  0  0  0  0  0  0  0  0  0
   11.7715   -0.6830   18.6052 C   0  0  0  0  0  0  0  0  0  0  0  0
   10.8237   -0.7140   17.6051 C   0  0  0  0  0  0  0  0  0  0  0  0
   13.2903    3.3031   22.3815 H   0  0  0  0  0  0  0  0  0  0  0  0
   12.6319    5.7331   20.9722 H   0  0  0  0  0  0  0  0  0  0  0  0
   13.2598    3.1538   19.8087 H   0  0  0  0  0  0  0  0  0  0  0  0
   10.6654    4.4461   19.8452 H   0  0  0  0  0  0  0  0  0  0  0  0
   13.2630    3.5191   26.7059 H   0  0  0  0  0  0  0  0  0  0  0  0
   13.3279    5.7562   25.7064 H   0  0  0  0  0  0  0  0  0  0  0  0
   15.3435    2.7136   25.9946 H   0  0  0  0  0  0  0  0  0  0  0  0
   16.6572    4.6584   27.6891 H   0  0  0  0  0  0  0  0  0  0  0  0
   11.5683    2.0995   21.2939 H   0  0  0  0  0  0  0  0  0  0  0  0
   16.5143    4.6723   24.8098 H   0  0  0  0  0  0  0  0  0  0  0  0
   14.7622    5.9719   21.4587 H   0  0  0  0  0  0  0  0  0  0  0  0
   13.0003    5.6870   18.7168 H   0  0  0  0  0  0  0  0  0  0  0  0
    9.9210    2.4012   18.9330 H   0  0  0  0  0  0  0  0  0  0  0  0
   14.6512    4.5893   28.7090 H   0  0  0  0  0  0  0  0  0  0  0  0
   15.7653    2.8416   28.7670 H   0  0  0  0  0  0  0  0  0  0  0  0
   17.8742    2.7246   27.5020 H   0  0  0  0  0  0  0  0  0  0  0  0
    7.0177    1.9992   25.5746 H   0  0  0  0  0  0  0  0  0  0  0  0
    7.4846   -2.9950   27.2077 H   0  0  0  0  0  0  0  0  0  0  0  0
    8.8049   -1.1603   16.1924 H   0  0  0  0  0  0  0  0  0  0  0  0
   10.6165   -1.6584   15.8932 H   0  0  0  0  0  0  0  0  0  0  0  0
   13.4509    5.9180   23.1776 H   0  0  0  0  0  0  0  0  0  0  0  0
   12.2084    5.2462   24.0063 H   0  0  0  0  0  0  0  0  0  0  0  0
   18.2968    5.8782   26.4970 H   0  0  0  0  0  0  0  0  0  0  0  0
   18.2368    6.0581   24.8728 H   0  0  0  0  0  0  0  0  0  0  0  0
   17.3962    7.0703   25.8318 H   0  0  0  0  0  0  0  0  0  0  0  0
    8.9130   -2.9877   23.9616 H   0  0  0  0  0  0  0  0  0  0  0  0
    8.1563   -0.0850   19.4312 H   0  0  0  0  0  0  0  0  0  0  0  0
   12.0908   -0.4179   20.6233 H   0  0  0  0  0  0  0  0  0  0  0  0
    7.4705   -0.7705   27.1188 H   0  0  0  0  0  0  0  0  0  0  0  0
   12.7348   -0.8370   18.3851 H   0  0  0  0  0  0  0  0  0  0  0  0
  1 17  1  0
  1 25  1  0
  2 26  1  0
  3 22  1  0
  3 27  1  0
  6 29  1  0
 11 30  1  0
 11 34  1  0
 12 31  2  0
 13 35  1  0
 14 40  1  0
 15 41  1  0
 16 43  1  0
 17 18  1  0
 17 26  1  0
 18  4  1  0
 18 19  1  0
 19  5  1  0
 19 20  1  0
 20  7  1  0
 20 25  1  0
 21  8  1  0
 21 22  1  0
 21 23  1  0
 22  2  1  0
 23  9  1  0
 23 24  1  0
 24 10  1  0
 24 27  1  0
 25  6  1  0
 27 28  1  0
 29 30  2  0
 29 31  1  0
 30 33  1  0
 31 32  1  0
 32 34  2  0
 32 35  1  0
 33 37  2  0
 33 38  1  0
 34 36  1  0
 35 39  2  0
 36 40  2  0
 37 41  1  0
 38 42  2  0
 39 40  1  0
 41 43  2  0
 42 43  1  0
  4 54  1  0
  5 55  1  0
  7 56  1  0
  8 57  1  0
  9 58  1  0
 10 59  1  0
 13 60  1  0
 14 61  1  0
 15 62  1  0
 16 63  1  0
 17 44  1  0
 18 45  1  0
 19 46  1  0
 20 47  1  0
 21 48  1  0
 22 49  1  0
 23 50  1  0
 24 51  1  0
 25 52  1  0
 26 64  1  0
 26 65  1  0
 27 53  1  0
 28 66  1  0
 28 67  1  0
 28 68  1  0
 36 69  1  0
 37 70  1  0
 38 71  1  0
 39 72  1  0
 42 73  1  0
M  END
>  <BioMolTech Lead Finder dG>
-7.381

>  <BioMolTech Lead Finder VSscore>
-13.402

>  <BioMolTech Lead Finder Rank score>
-13.248

>  <BioMolTech Lead Finder LE>
-0.172

>  <BioMolTech Lead Finder Structure Name>
/var/folders/xd/y7jw_xv579q2qqq7kks92xd80000gn/T/LeadFinder_21463_1/Ligand_1.sdf

>  <BioMolTech Lead Finder SDF id>
0

>  <BioMolTech Lead Finder Pose rank>
0

>  <BioMolTech Lead Finder version>
2001 1, 19 January 2019

>  <PUBCHEM_COMPOUND_CID>
5280805

>  <PUBCHEM_COMPOUND_CANONICALIZED>
1

>  <PUBCHEM_CACTVS_COMPLEXITY>
1020

>  <PUBCHEM_CACTVS_HBOND_ACCEPTOR>
16

>  <PUBCHEM_CACTVS_HBOND_DONOR>
10

>  <PUBCHEM_CACTVS_ROTATABLE_BOND>
6

>  <PUBCHEM_CACTVS_SUBSKEYS>
AAADceB4PgAAAAAAAAAAAAAAAAAAAAAAAAA0aIECAAAAAACBQAAAGgAACAAADBSwmAMyDoAABgCIAqBSAAICCAAkIAAIiAFGiMgdNzaGNR6ieWGl4BUPuQfI7LzOIAABCAAIQABAAAIQABCAAAAAAAAAAA==

>  <PUBCHEM_IUPAC_OPENEYE_NAME>
2-(3,4-dihydroxyphenyl)-5,7-dihydroxy-3-[(2S,3R,4S,5S,6R)-3,4,5-trihydroxy-6-[[(2R,3R,4R,5R,6S)-3,4,5-trihydroxy-6-methyl-tetrahydropyran-2-yl]oxymethyl]tetrahydropyran-2-yl]oxy-chromen-4-one

>  <PUBCHEM_IUPAC_CAS_NAME>
2-(3,4-dihydroxyphenyl)-5,7-dihydroxy-3-[[(2S,3R,4S,5S,6R)-3,4,5-trihydroxy-6-[[(2R,3R,4R,5R,6S)-3,4,5-trihydroxy-6-methyl-2-oxanyl]oxymethyl]-2-oxanyl]oxy]-1-benzopyran-4-one

>  <PUBCHEM_IUPAC_NAME_MARKUP>
2-(3,4-dihydroxyphenyl)-5,7-dihydroxy-3-[(2<I>S</I>,3<I>R</I>,4<I>S</I>,5<I>S</I>,6<I>R</I>)-3,4,5-trihydroxy-6-[[(2<I>R</I>,3<I>R</I>,4<I>R</I>,5<I>R</I>,6<I>S</I>)-3,4,5-trihydroxy-6-methyloxan-2-yl

>  <PUBCHEM_IUPAC_NAME>
2-(3,4-dihydroxyphenyl)-5,7-dihydroxy-3-[(2S,3R,4S,5S,6R)-3,4,5-trihydroxy-6-[[(2R,3R,4R,5R,6S)-3,4,5-trihydroxy-6-methyloxan-2-yl]oxymethyl]oxan-2-yl]oxychromen-4-one

>  <PUBCHEM_IUPAC_SYSTEMATIC_NAME>
2-[3,4-bis(oxidanyl)phenyl]-3-[(2S,3R,4S,5S,6R)-6-[[(2R,3R,4R,5R,6S)-6-methyl-3,4,5-tris(oxidanyl)oxan-2-yl]oxymethyl]-3,4,5-tris(oxidanyl)oxan-2-yl]oxy-5,7-bis(oxidanyl)chromen-4-one

>  <PUBCHEM_IUPAC_TRADITIONAL_NAME>
2-(3,4-dihydroxyphenyl)-5,7-dihydroxy-3-[(2S,3R,4S,5S,6R)-3,4,5-trihydroxy-6-[[(2R,3R,4R,5R,6S)-3,4,5-trihydroxy-6-methyl-tetrahydropyran-2-yl]oxymethyl]tetrahydropyran-2-yl]oxy-chromone

>  <PUBCHEM_IUPAC_INCHI>
InChI=1S/C27H30O16/c1-8-17(32)20(35)22(37)26(40-8)39-7-15-18(33)21(36)23(38)27(42-15)43-25-19(34)16-13(31)5-10(28)6-14(16)41-24(25)9-2-3-11(29)12(30)4-9/h2-6,8,15,17-18,20-23,26-33,35-38H,7H2,1H3/t8-,

>  <PUBCHEM_IUPAC_INCHIKEY>
IKGXIBQEEMLURG-NVPNHPEKSA-N

>  <PUBCHEM_XLOGP3_AA>
-1.3

>  <PUBCHEM_EXACT_MASS>
610.153385

>  <PUBCHEM_MOLECULAR_FORMULA>
C27H30O16

>  <PUBCHEM_MOLECULAR_WEIGHT>
610.5

>  <PUBCHEM_OPENEYE_CAN_SMILES>
CC1C(C(C(C(O1)OCC2C(C(C(C(O2)OC3=C(OC4=CC(=CC(=C4C3=O)O)O)C5=CC(=C(C=C5)O)O)O)O)O)O)O)O

>  <PUBCHEM_OPENEYE_ISO_SMILES>
C[C@H]1[C@@H]([C@H]([C@H]([C@@H](O1)OC[C@@H]2[C@H]([C@@H]([C@H]([C@@H](O2)OC3=C(OC4=CC(=CC(=C4C3=O)O)O)C5=CC(=C(C=C5)O)O)O)O)O)O)O)O

>  <PUBCHEM_CACTVS_TPSA>
266

>  <PUBCHEM_MONOISOTOPIC_WEIGHT>
610.153385

>  <PUBCHEM_TOTAL_CHARGE>
0

>  <PUBCHEM_HEAVY_ATOM_COUNT>
43

>  <PUBCHEM_ATOM_DEF_STEREO_COUNT>
10

>  <PUBCHEM_ATOM_UDEF_STEREO_COUNT>
0

>  <PUBCHEM_BOND_DEF_STEREO_COUNT>
0

>  <PUBCHEM_BOND_UDEF_STEREO_COUNT>
0

>  <PUBCHEM_ISOTOPIC_ATOM_COUNT>
0

>  <PUBCHEM_COMPONENT_COUNT>
1

>  <PUBCHEM_CACTVS_TAUTO_COUNT>
-1

>  <PUBCHEM_COORDINATE_TYPE>
1
5
255

>  <PUBCHEM_BONDANNOTATIONS>
24  10  5
11  30  8
11  34  8
17  26  5
22  2  5
27  28  6
29  30  8
29  31  8
31  32  8
32  34  8
32  35  8
33  37  8
33  38  8
34  36  8
35  39  8
36  40  8
37  41  8
38  42  8
39  40  8
18  4  6
41  43  8
42  43  8
19  5  5
25  6  5
20  7  6
21  8  6
23  9  6

>  <LF dG>
-7.381

>  <LF VSscore>
-13.402

>  <LF Rank Score>
-13.248

>  <LF LE>
-0.172

>  <Preferred Pose_cresset>
true

>  <Favorite_cresset>
false

>  <Protein_cresset>
6Y2F_P

>  <MW_cresset>
610.5

>  <#Atoms_cresset>
43

>  <SlogP_cresset>
0.4

>  <TPSA_cresset>
265.5

>  <Flexibility_cresset>
14.6

>  <#RB_cresset>
16

>  <Rof5_cresset>
3

>  <Filename_cresset>
Rutin.sdf

>  <Confs_cresset>
0

>  <Poses_cresset>
10

>  <_cresset_fieldpoints>
    -5       9.011358       2.962726      25.704439    -18.7985
    -5       9.746383       4.155547      23.311600    -22.1723
    -5      15.355839       4.477481      19.354237    -13.7469
    -5      18.770126       3.104384      25.091625    -11.7314
    -5      14.921009       7.061509      27.270618     -9.2280
    -5      12.338638       5.854623      28.434317    -11.8680
    -5      12.027685       0.636316      15.657099     -8.9950
    -5      12.017183       3.462134      17.460678    -22.4450
    -5       7.665305       1.116920      16.482250     -6.6469
    -5      14.368574       0.754465      27.824059    -11.1588
    -5       9.875563      -2.860708      21.422462     -3.2072
    -5       8.761412      -4.884268      26.019150     -6.6073
    -6      12.411927       0.521441      22.504509      5.4357
    -6      13.005369       7.386088      19.598843     10.2974
    -6      13.814831       7.612196      21.724842     11.3970
    -6       6.880782       0.059318      21.265240      4.0371
    -6       8.017863       2.608760      18.939060      5.6222
    -6      16.190298       4.231609      29.789751     18.9069
    -6      17.476578       3.185134      29.317204     17.3182
    -6       9.268673      -2.650437      15.181344     16.8070
    -6       5.185355       1.820174      25.050232      6.6501
    -6       6.666269      -2.138941      28.627642     10.2725
    -6       9.400311      -4.508704      22.580551      1.5070
    -7       9.538670       4.906043      23.249374     -2.7250
    -7       9.964899       5.800241      22.223557     -2.5478
    -7      15.273668       6.921648      28.156799     -2.6248
    -7      15.326719       5.733469      18.759537     -1.5976
    -7      12.369754       2.258306      17.085342     -2.4669
    -7      15.960287       3.933280      22.529404     -2.9017
    -7      11.128141       6.944744      19.183769     -1.6790
    -7       9.756012       0.161859      14.564816     -1.4985
    -7       6.595920       0.266732      21.473217     -2.7135
    -7       7.781038       2.719050      19.492016     -2.5086
    -7      11.078255       5.601536      17.345459     -1.4844
    -7      13.640308       2.788814      29.727669     -1.6755
    -7      11.467962       2.341844      24.595003     -3.7949
    -7      17.008717       0.651607      27.524445     -1.4275
    -7      17.765461       3.336128      29.723289     -1.3910
    -7      15.574957       2.816576      23.400826     -2.9876
    -7      19.576691       4.247672      28.071568     -1.5617
    -7      17.562038       2.248220      24.417812     -1.8202
    -7      11.999094       0.891666      23.526253     -3.6786
    -7       5.550694      -0.796264      23.317787     -1.8456
    -7       5.818755       1.589842      27.619160     -1.2555
    -7       6.104520       2.366370      23.387638     -1.8383
    -7       9.362650      -2.844852      28.596615     -1.1996
    -7       5.211223      -3.077493      26.619419     -1.1920
    -7       8.302050      -5.386177      25.296329     -1.1357
    -7       9.543080      -3.268581      21.210590     -2.4720
    -7       9.237469      -3.491376      16.504738     -1.3766
    -7      12.727169      -2.883699      16.007318     -1.2151
    -7      13.982170       1.122139      21.226032     -2.7685
    -7      13.759582       8.025784      21.750179     -1.5085
    -7      16.301178       4.510933      30.210125     -1.4640
    -7      15.744476       7.009873      23.207386     -2.5097
    -8       8.394174      -0.873720      24.915909      6.7248
    -8      12.275108       3.837839      20.786177      5.1898
    -8      12.950949       5.115099      22.281225      4.2861
    -8      15.454355       4.188627      26.331413      4.8088
    -8      10.457478      -0.461875      18.971813      6.8809
    -8      17.241154       5.299516      26.172905      4.4814
    -8      12.996523       5.755372      24.511242      2.3900
    -8       9.036232       0.444758      23.068090      4.8631

$$$$
