NHC.pdb
  RxDock  02242113073D
librxdock.so/0.1.0
 23 24  0  0  0  0  0  0  0  0999 V2000
  -47.7084    0.0031   15.5652 O   0  0  0  0  0  0
  -47.1805   -2.9861   13.6560 O   0  0  0  0  0  0
  -48.8745   -0.9597   12.9761 O   0  0  0  0  0  0
  -50.2131    0.4623   17.2116 O   0  0  0  0  0  0
  -47.4582   -1.6228   17.7511 O   0  0  0  0  0  0
  -43.5292   -2.2281   20.2388 O   0  0  0  0  0  0
  -45.8822   -1.3600   16.0864 N   0  0  0  0  0  0
  -45.2949   -1.9632   18.3478 N   0  0  0  0  0  0
  -43.0766   -2.3083   18.9539 N   0  0  0  0  0  0
  -47.7246   -2.2016   14.6979 C   0  0  0  0  0  0
  -49.0072   -1.5099   14.2870 C   0  0  0  0  0  0
  -46.8377   -1.0265   15.0688 C   0  0  0  0  0  0
  -49.0770   -0.3541   15.2756 C   0  0  0  0  0  0
  -49.7577   -0.7245   16.5872 C   0  0  0  0  0  0
  -44.5378   -1.3975   15.7501 C   0  0  0  0  0  0
  -46.2724   -1.6489   17.4190 C   0  0  0  0  0  0
  -43.5834   -1.6953   16.6294 C   0  0  0  0  0  0
  -44.0317   -1.9934   18.0146 C   0  0  0  0  0  0
  -47.7288   -3.7843   13.5745 H   0  0  0  0  0  0
  -48.8366   -1.6844   12.3304 H   0  0  0  0  0  0
  -50.6495    0.2001   18.0404 H   0  0  0  0  0  0
  -42.0991   -2.5111   18.7811 H   0  0  0  0  0  0
  -42.7551   -2.5276   20.7438 H   0  0  0  0  0  0
  1 12  1  0  0  0
  1 13  1  0  0  0
  2 10  1  0  0  0
  2 19  1  0  0  0
  3 11  1  0  0  0
  3 20  1  0  0  0
  4 14  1  0  0  0
  4 21  1  0  0  0
  5 16  2  0  0  0
  6  9  1  0  0  0
  6 23  1  0  0  0
  7 12  1  0  0  0
  7 15  1  0  0  0
  7 16  1  0  0  0
  8 16  1  0  0  0
  8 18  2  0  0  0
  9 18  1  0  0  0
  9 22  1  0  0  0
 10 11  1  0  0  0
 11 13  1  0  0  0
 12 10  1  0  0  0
 13 14  1  0  0  0
 15 17  2  0  0  0
 17 18  1  0  0  0
M  END
>  <CHROM.0>
-65.28021570,-62.81450407,-60.72668555

>  <CHROM.1>
-74.24391145,69.77370952,179.51546842,176.84745234,-130.14186883,-15.93698236
84.24482954,-46.72309604,-1.41591169,16.36632232,2.56630969,0.35096464,-1.76982966

>  <Name>
NHC.pdb

>  <RI>
-4.41179e+08

>  <Rbt.Current_Directory>
/root/miniconda3/envs/rdock/share/rxdock-2013.1.1_148c5bd1-0/data/ligands/prepped_ligands/NHC

>  <Rbt.Executable>
rbdock/0.1.0

>  <Rbt.Library>
librxdock.so/0.1.0

>  <Rbt.Parameter_File>
/root/miniconda3/envs/rdock/share/rxdock-2013.1.1_148c5bd1-0/data/scripts/dock.prm

>  <Rbt.Receptor>
def.prm

>  <SCORE>
-15.0701

>  <SCORE.INTER>
-14.393

>  <SCORE.INTER.CONST>
1

>  <SCORE.INTER.POLAR>
-2.95713

>  <SCORE.INTER.REPUL>
0.21014

>  <SCORE.INTER.ROT>
3

>  <SCORE.INTER.VDW>
-13.7895

>  <SCORE.INTER.norm>
-0.799614

>  <SCORE.INTRA>
0.352143

>  <SCORE.INTRA.DIHEDRAL>
1.46371

>  <SCORE.INTRA.DIHEDRAL.0>
5.29717

>  <SCORE.INTRA.POLAR>
0

>  <SCORE.INTRA.POLAR.0>
0

>  <SCORE.INTRA.REPUL>
0

>  <SCORE.INTRA.REPUL.0>
0

>  <SCORE.INTRA.VDW>
-0.37971

>  <SCORE.INTRA.VDW.0>
-0.818277

>  <SCORE.INTRA.norm>
0.0195635

>  <SCORE.RESTR>
0

>  <SCORE.RESTR.CAVITY>
0

>  <SCORE.RESTR.norm>
0

>  <SCORE.SYSTEM>
-1.02915

>  <SCORE.SYSTEM.CONST>
0

>  <SCORE.SYSTEM.DIHEDRAL>
0.113322

>  <SCORE.SYSTEM.VDW>
-1.08581

>  <SCORE.SYSTEM.norm>
-0.0571752

>  <SCORE.heavy>
18

>  <SCORE.norm>
-0.837225

$$$$
NHC.pdb
  RxDock  02242113073D
librxdock.so/0.1.0
 23 24  0  0  0  0  0  0  0  0999 V2000
  -46.2554   -2.6248   17.7341 O   0  0  0  0  0  0
  -45.3860   -2.9799   14.2733 O   0  0  0  0  0  0
  -43.7655   -1.9457   16.2078 O   0  0  0  0  0  0
  -46.2186    1.0047   17.5078 O   0  0  0  0  0  0
  -47.3015   -5.4734   18.0771 O   0  0  0  0  0  0
  -51.6283   -6.6333   16.7683 O   0  0  0  0  0  0
  -47.6020   -3.9569   16.3643 N   0  0  0  0  0  0
  -49.3020   -5.5441   17.0070 N   0  0  0  0  0  0
  -51.3487   -5.6136   15.9055 N   0  0  0  0  0  0
  -45.9978   -2.3717   15.3926 C   0  0  0  0  0  0
  -45.0767   -1.3930   16.0899 C   0  0  0  0  0  0
  -46.3030   -3.3622   16.5018 C   0  0  0  0  0  0
  -45.6830   -1.3229   17.4848 C   0  0  0  0  0  0
  -46.7926   -0.2862   17.6071 C   0  0  0  0  0  0
  -48.4545   -3.4736   15.3835 C   0  0  0  0  0  0
  -48.0348   -5.0199   17.1974 C   0  0  0  0  0  0
  -49.6752   -3.9661   15.1838 C   0  0  0  0  0  0
  -50.0930   -5.0776   16.0774 C   0  0  0  0  0  0
  -46.0041   -3.6461   13.9287 H   0  0  0  0  0  0
  -43.8264   -2.8200   16.6266 H   0  0  0  0  0  0
  -46.9326    1.6476   17.6597 H   0  0  0  0  0  0
  -52.0166   -5.3751   15.1820 H   0  0  0  0  0  0
  -51.9686   -7.3172   16.1677 H   0  0  0  0  0  0
  1 12  1  0  0  0
  1 13  1  0  0  0
  2 10  1  0  0  0
  2 19  1  0  0  0
  3 11  1  0  0  0
  3 20  1  0  0  0
  4 14  1  0  0  0
  4 21  1  0  0  0
  5 16  2  0  0  0
  6  9  1  0  0  0
  6 23  1  0  0  0
  7 12  1  0  0  0
  7 15  1  0  0  0
  7 16  1  0  0  0
  8 16  1  0  0  0
  8 18  2  0  0  0
  9 18  1  0  0  0
  9 22  1  0  0  0
 10 11  1  0  0  0
 11 13  1  0  0  0
 12 10  1  0  0  0
 13 14  1  0  0  0
 15 17  2  0  0  0
 17 18  1  0  0  0
M  END
>  <CHROM.0>
178.62223117,-178.40344442,171.06339642

>  <CHROM.1>
175.10128002,-52.93065938,-175.55510757,-130.97970344,110.62214207,-0.56074256
173.77867525,-47.46444762,-3.31743456,16.49712316,0.68303359,0.31330904,0.41510884

>  <Name>
NHC.pdb

>  <RI>
-4.41179e+08

>  <Rbt.Current_Directory>
/root/miniconda3/envs/rdock/share/rxdock-2013.1.1_148c5bd1-0/data/ligands/prepped_ligands/NHC

>  <Rbt.Executable>
rbdock/0.1.0

>  <Rbt.Library>
librxdock.so/0.1.0

>  <Rbt.Parameter_File>
/root/miniconda3/envs/rdock/share/rxdock-2013.1.1_148c5bd1-0/data/scripts/dock.prm

>  <Rbt.Receptor>
def.prm

>  <SCORE>
-13.7005

>  <SCORE.INTER>
-14.4749

>  <SCORE.INTER.CONST>
1

>  <SCORE.INTER.POLAR>
-2.4951

>  <SCORE.INTER.REPUL>
0

>  <SCORE.INTER.ROT>
3

>  <SCORE.INTER.VDW>
-14.3915

>  <SCORE.INTER.norm>
-0.804159

>  <SCORE.INTRA>
1.73865

>  <SCORE.INTRA.DIHEDRAL>
0.225252

>  <SCORE.INTRA.DIHEDRAL.0>
5.29717

>  <SCORE.INTRA.POLAR>
0

>  <SCORE.INTRA.POLAR.0>
0

>  <SCORE.INTRA.REPUL>
0

>  <SCORE.INTRA.REPUL.0>
0

>  <SCORE.INTRA.VDW>
1.62603

>  <SCORE.INTRA.VDW.0>
-0.818277

>  <SCORE.INTRA.norm>
0.0965919

>  <SCORE.RESTR>
0

>  <SCORE.RESTR.CAVITY>
0

>  <SCORE.RESTR.norm>
0

>  <SCORE.SYSTEM>
-0.964323

>  <SCORE.SYSTEM.CONST>
0

>  <SCORE.SYSTEM.DIHEDRAL>
0.21897

>  <SCORE.SYSTEM.VDW>
-1.07381

>  <SCORE.SYSTEM.norm>
-0.0535735

>  <SCORE.heavy>
18

>  <SCORE.norm>
-0.761141

$$$$
NHC.pdb
  RxDock  02242113073D
librxdock.so/0.1.0
 23 24  0  0  0  0  0  0  0  0999 V2000
  -48.4976   -0.3713   15.5545 O   0  0  0  0  0  0
  -49.2957   -3.8500   15.2082 O   0  0  0  0  0  0
  -50.7895   -1.7855   14.2365 O   0  0  0  0  0  0
  -51.3476    0.3454   17.6820 O   0  0  0  0  0  0
  -47.8152   -2.0086   18.1402 O   0  0  0  0  0  0
  -43.2749   -2.3258   19.2977 O   0  0  0  0  0  0
  -46.8534   -1.9594   16.0434 N   0  0  0  0  0  0
  -45.5664   -2.3048   18.0551 N   0  0  0  0  0  0
  -43.2624   -2.6053   17.9620 N   0  0  0  0  0  0
  -49.2164   -2.6060   15.8739 C   0  0  0  0  0  0
  -50.4305   -1.7385   15.6177 C   0  0  0  0  0  0
  -48.0897   -1.7337   15.3501 C   0  0  0  0  0  0
  -49.8952   -0.3447   15.9157 C   0  0  0  0  0  0
  -49.9971    0.0371   17.3871 C   0  0  0  0  0  0
  -45.6838   -2.0523   15.3049 C   0  0  0  0  0  0
  -46.7949   -2.0876   17.4547 C   0  0  0  0  0  0
  -44.4933   -2.2584   15.8642 C   0  0  0  0  0  0
  -44.4731   -2.3891   17.3444 C   0  0  0  0  0  0
  -50.0684   -4.3218   15.5616 H   0  0  0  0  0  0
  -51.0213   -2.6986   14.0000 H   0  0  0  0  0  0
  -51.3952    0.5395   18.6339 H   0  0  0  0  0  0
  -42.3920   -2.8692   17.5157 H   0  0  0  0  0  0
  -42.3558   -2.5136   19.5510 H   0  0  0  0  0  0
  1 12  1  0  0  0
  1 13  1  0  0  0
  2 10  1  0  0  0
  2 19  1  0  0  0
  3 11  1  0  0  0
  3 20  1  0  0  0
  4 14  1  0  0  0
  4 21  1  0  0  0
  5 16  2  0  0  0
  6  9  1  0  0  0
  6 23  1  0  0  0
  7 12  1  0  0  0
  7 15  1  0  0  0
  7 16  1  0  0  0
  8 16  1  0  0  0
  8 18  2  0  0  0
  9 18  1  0  0  0
  9 22  1  0  0  0
 10 11  1  0  0  0
 11 13  1  0  0  0
 12 10  1  0  0  0
 13 14  1  0  0  0
 15 17  2  0  0  0
 17 18  1  0  0  0
M  END
>  <CHROM.0>
175.74430882,-58.54704750,62.13077988

>  <CHROM.1>
-62.16729985,61.78278655,177.06726771,-178.81492803,-105.58251530,-18.14767503
167.66117976,-47.60543667,-1.77877423,16.59472397,2.98917866,0.32016582,-2.10832077

>  <Name>
NHC.pdb

>  <RI>
-4.41179e+08

>  <Rbt.Current_Directory>
/root/miniconda3/envs/rdock/share/rxdock-2013.1.1_148c5bd1-0/data/ligands/prepped_ligands/NHC

>  <Rbt.Executable>
rbdock/0.1.0

>  <Rbt.Library>
librxdock.so/0.1.0

>  <Rbt.Parameter_File>
/root/miniconda3/envs/rdock/share/rxdock-2013.1.1_148c5bd1-0/data/scripts/dock.prm

>  <Rbt.Receptor>
def.prm

>  <SCORE>
-11.6654

>  <SCORE.INTER>
-9.77956

>  <SCORE.INTER.CONST>
1

>  <SCORE.INTER.POLAR>
-1.98567

>  <SCORE.INTER.REPUL>
0.127224

>  <SCORE.INTER.ROT>
3

>  <SCORE.INTER.VDW>
-12.0644

>  <SCORE.INTER.norm>
-0.543309

>  <SCORE.INTRA>
-0.920205

>  <SCORE.INTRA.DIHEDRAL>
-0.945813

>  <SCORE.INTRA.DIHEDRAL.0>
5.29717

>  <SCORE.INTRA.POLAR>
0

>  <SCORE.INTRA.POLAR.0>
0

>  <SCORE.INTRA.REPUL>
0

>  <SCORE.INTRA.REPUL.0>
0

>  <SCORE.INTRA.VDW>
-0.447298

>  <SCORE.INTRA.VDW.0>
-0.818277

>  <SCORE.INTRA.norm>
-0.0511225

>  <SCORE.RESTR>
0

>  <SCORE.RESTR.CAVITY>
0

>  <SCORE.RESTR.norm>
0

>  <SCORE.SYSTEM>
-0.965672

>  <SCORE.SYSTEM.CONST>
0

>  <SCORE.SYSTEM.DIHEDRAL>
0.0676894

>  <SCORE.SYSTEM.POLAR>
-0.00583003

>  <SCORE.SYSTEM.VDW>
-0.979694

>  <SCORE.SYSTEM.norm>
-0.0536484

>  <SCORE.heavy>
18

>  <SCORE.norm>
-0.64808

$$$$
NHC.pdb
  RxDock  02242113073D
librxdock.so/0.1.0
 23 24  0  0  0  0  0  0  0  0999 V2000
  -53.8065   -6.1832   14.5084 O   0  0  0  0  0  0
  -52.4812   -7.2500   17.6651 O   0  0  0  0  0  0
  -53.9447   -8.8006   15.9646 O   0  0  0  0  0  0
  -55.5199   -4.8198   16.1967 O   0  0  0  0  0  0
  -50.8638   -5.3087   17.3890 O   0  0  0  0  0  0
  -49.9159   -0.7633   16.8272 O   0  0  0  0  0  0
  -52.2015   -4.8522   15.5652 N   0  0  0  0  0  0
  -50.7508   -3.1994   16.5583 N   0  0  0  0  0  0
  -50.6410   -1.0393   15.7044 N   0  0  0  0  0  0
  -53.3965   -6.6041   16.8035 C   0  0  0  0  0  0
  -54.4932   -7.5337   16.3289 C   0  0  0  0  0  0
  -52.7612   -6.1719   15.4942 C   0  0  0  0  0  0
  -54.9669   -6.8446   15.0566 C   0  0  0  0  0  0
  -56.0388   -5.7911   15.3062 C   0  0  0  0  0  0
  -52.6112   -3.9050   14.6395 C   0  0  0  0  0  0
  -51.2478   -4.4916   16.5511 C   0  0  0  0  0  0
  -52.1466   -2.6574   14.6318 C   0  0  0  0  0  0
  -51.1481   -2.3183   15.6790 C   0  0  0  0  0  0
  -51.7523   -6.6300   17.8347 H   0  0  0  0  0  0
  -53.3393   -9.0970   16.6640 H   0  0  0  0  0  0
  -54.7816   -4.3798   15.7412 H   0  0  0  0  0  0
  -50.8149   -0.3038   15.0297 H   0  0  0  0  0  0
  -49.7436    0.1876   16.7266 H   0  0  0  0  0  0
  1 12  1  0  0  0
  1 13  1  0  0  0
  2 10  1  0  0  0
  2 19  1  0  0  0
  3 11  1  0  0  0
  3 20  1  0  0  0
  4 14  1  0  0  0
  4 21  1  0  0  0
  5 16  2  0  0  0
  6  9  1  0  0  0
  6 23  1  0  0  0
  7 12  1  0  0  0
  7 15  1  0  0  0
  7 16  1  0  0  0
  8 16  1  0  0  0
  8 18  2  0  0  0
  9 18  1  0  0  0
  9 22  1  0  0  0
 10 11  1  0  0  0
 11 13  1  0  0  0
 12 10  1  0  0  0
 13 14  1  0  0  0
 15 17  2  0  0  0
 17 18  1  0  0  0
M  END
>  <CHROM.0>
53.11415502,-66.23467582,-74.33312294

>  <CHROM.1>
172.91941547,47.15442000,64.35946566,-173.03242924,-6.92804259,-10.68873698
-58.59176368,-52.71623030,-4.93670805,15.97608116,2.28378630,0.49803410,2.78466817

>  <Name>
NHC.pdb

>  <RI>
-4.41179e+08

>  <Rbt.Current_Directory>
/root/miniconda3/envs/rdock/share/rxdock-2013.1.1_148c5bd1-0/data/ligands/prepped_ligands/NHC

>  <Rbt.Executable>
rbdock/0.1.0

>  <Rbt.Library>
librxdock.so/0.1.0

>  <Rbt.Parameter_File>
/root/miniconda3/envs/rdock/share/rxdock-2013.1.1_148c5bd1-0/data/scripts/dock.prm

>  <Rbt.Receptor>
def.prm

>  <SCORE>
-12.7222

>  <SCORE.INTER>
-9.12057

>  <SCORE.INTER.CONST>
1

>  <SCORE.INTER.POLAR>
-1.01693

>  <SCORE.INTER.REPUL>
0.00143693

>  <SCORE.INTER.ROT>
3

>  <SCORE.INTER.VDW>
-14.0702

>  <SCORE.INTER.norm>
-0.506698

>  <SCORE.INTRA>
-2.91228

>  <SCORE.INTRA.DIHEDRAL>
-1.12507

>  <SCORE.INTRA.DIHEDRAL.0>
5.29717

>  <SCORE.INTRA.POLAR>
-1.09328

>  <SCORE.INTRA.POLAR.0>
0

>  <SCORE.INTRA.REPUL>
0

>  <SCORE.INTRA.REPUL.0>
0

>  <SCORE.INTRA.VDW>
1.36741

>  <SCORE.INTRA.VDW.0>
-0.818277

>  <SCORE.INTRA.norm>
-0.161793

>  <SCORE.RESTR>
0

>  <SCORE.RESTR.CAVITY>
0

>  <SCORE.RESTR.norm>
0

>  <SCORE.SYSTEM>
-0.689354

>  <SCORE.SYSTEM.CONST>
0

>  <SCORE.SYSTEM.DIHEDRAL>
0.805172

>  <SCORE.SYSTEM.VDW>
-1.09194

>  <SCORE.SYSTEM.norm>
-0.0382975

>  <SCORE.heavy>
18

>  <SCORE.norm>
-0.706789

$$$$
NHC.pdb
  RxDock  02242113073D
librxdock.so/0.1.0
 23 24  0  0  0  0  0  0  0  0999 V2000
  -49.2709   -6.5773   18.4321 O   0  0  0  0  0  0
  -52.7853   -6.8114   17.7591 O   0  0  0  0  0  0
  -51.5374   -7.7839   19.9805 O   0  0  0  0  0  0
  -47.4061   -8.3629   17.6716 O   0  0  0  0  0  0
  -48.0263   -4.7516   17.3613 O   0  0  0  0  0  0
  -48.0622   -2.8785   13.0698 O   0  0  0  0  0  0
  -50.1800   -5.2731   16.7184 N   0  0  0  0  0  0
  -48.6929   -3.9665   15.3386 N   0  0  0  0  0  0
  -49.3822   -3.1628   13.2683 N   0  0  0  0  0  0
  -51.4245   -7.1757   17.6468 C   0  0  0  0  0  0
  -51.0049   -8.1663   18.7121 C   0  0  0  0  0  0
  -50.4847   -6.0128   17.9100 C   0  0  0  0  0  0
  -49.4962   -7.9658   18.7574 C   0  0  0  0  0  0
  -48.7453   -8.8181   17.7422 C   0  0  0  0  0  0
  -51.1571   -5.1522   15.7423 C   0  0  0  0  0  0
  -48.9155   -4.6645   16.5134 C   0  0  0  0  0  0
  -50.9627   -4.4834   14.6076 C   0  0  0  0  0  0
  -49.6250   -3.8613   14.4288 C   0  0  0  0  0  0
  -52.9863   -6.2034   17.0280 H   0  0  0  0  0  0
  -52.4975   -7.6621   19.8977 H   0  0  0  0  0  0
  -46.9670   -8.8739   16.9700 H   0  0  0  0  0  0
  -50.0733   -2.7985   12.6233 H   0  0  0  0  0  0
  -47.6263   -3.5759   13.5872 H   0  0  0  0  0  0
  1 12  1  0  0  0
  1 13  1  0  0  0
  2 10  1  0  0  0
  2 19  1  0  0  0
  3 11  1  0  0  0
  3 20  1  0  0  0
  4 14  1  0  0  0
  4 21  1  0  0  0
  5 16  2  0  0  0
  6  9  1  0  0  0
  6 23  1  0  0  0
  7 12  1  0  0  0
  7 15  1  0  0  0
  7 16  1  0  0  0
  8 16  1  0  0  0
  8 18  2  0  0  0
  9 18  1  0  0  0
  9 22  1  0  0  0
 10 11  1  0  0  0
 11 13  1  0  0  0
 12 10  1  0  0  0
 13 14  1  0  0  0
 15 17  2  0  0  0
 17 18  1  0  0  0
M  END
>  <CHROM.0>
-56.71778652,64.12398810,-62.06856888

>  <CHROM.1>
-177.99636020,53.36272619,-175.66433035,24.42391393,151.55399925,13.11922105
50.95955318,-49.81856500,-5.90601340,16.78232920,-1.78402615,0.11147529,-0.79344470

>  <Name>
NHC.pdb

>  <RI>
-4.41179e+08

>  <Rbt.Current_Directory>
/root/miniconda3/envs/rdock/share/rxdock-2013.1.1_148c5bd1-0/data/ligands/prepped_ligands/NHC

>  <Rbt.Executable>
rbdock/0.1.0

>  <Rbt.Library>
librxdock.so/0.1.0

>  <Rbt.Parameter_File>
/root/miniconda3/envs/rdock/share/rxdock-2013.1.1_148c5bd1-0/data/scripts/dock.prm

>  <Rbt.Receptor>
def.prm

>  <SCORE>
-10.5794

>  <SCORE.INTER>
-11.2525

>  <SCORE.INTER.CONST>
1

>  <SCORE.INTER.POLAR>
-1.83219

>  <SCORE.INTER.REPUL>
0

>  <SCORE.INTER.ROT>
3

>  <SCORE.INTER.VDW>
-13.423

>  <SCORE.INTER.norm>
-0.625139

>  <SCORE.INTRA>
1.68163

>  <SCORE.INTRA.DIHEDRAL>
-0.378475

>  <SCORE.INTRA.DIHEDRAL.0>
5.29717

>  <SCORE.INTRA.POLAR>
-0.256267

>  <SCORE.INTRA.POLAR.0>
0

>  <SCORE.INTRA.REPUL>
0

>  <SCORE.INTRA.REPUL.0>
0

>  <SCORE.INTRA.VDW>
2.74217

>  <SCORE.INTRA.VDW.0>
-0.818277

>  <SCORE.INTRA.norm>
0.0934238

>  <SCORE.RESTR>
0

>  <SCORE.RESTR.CAVITY>
0

>  <SCORE.RESTR.norm>
0

>  <SCORE.SYSTEM>
-1.00849

>  <SCORE.SYSTEM.CONST>
0

>  <SCORE.SYSTEM.DIHEDRAL>
0.120134

>  <SCORE.SYSTEM.VDW>
-1.06856

>  <SCORE.SYSTEM.norm>
-0.0560274

>  <SCORE.heavy>
18

>  <SCORE.norm>
-0.587742

$$$$
NHC.pdb
  RxDock  02242113073D
librxdock.so/0.1.0
 23 24  0  0  0  0  0  0  0  0999 V2000
  -52.0571   -3.3721   16.6583 O   0  0  0  0  0  0
  -49.1226   -5.4129   16.3719 O   0  0  0  0  0  0
  -49.1455   -2.7705   17.0463 O   0  0  0  0  0  0
  -51.2640   -1.1895   13.8848 O   0  0  0  0  0  0
  -51.6277   -7.0294   18.2916 O   0  0  0  0  0  0
  -54.9348   -9.7699   16.4662 O   0  0  0  0  0  0
  -52.3055   -5.6932   16.5369 N   0  0  0  0  0  0
  -53.2799   -7.8571   16.9736 N   0  0  0  0  0  0
  -54.9705   -8.7011   15.6184 N   0  0  0  0  0  0
  -50.1915   -4.6191   15.8984 C   0  0  0  0  0  0
  -49.8397   -3.1470   15.8568 C   0  0  0  0  0  0
  -51.3872   -4.6310   16.8338 C   0  0  0  0  0  0
  -51.2129   -2.4901   15.8877 C   0  0  0  0  0  0
  -51.8335   -2.3279   14.5057 C   0  0  0  0  0  0
  -53.1536   -5.5549   15.4489 C   0  0  0  0  0  0
  -52.3682   -6.8743   17.3196 C   0  0  0  0  0  0
  -54.0350   -6.4895   15.0993 C   0  0  0  0  0  0
  -54.0717   -7.7114   15.9444 C   0  0  0  0  0  0
  -48.3814   -5.3043   15.7527 H   0  0  0  0  0  0
  -48.9389   -1.8222   17.0062 H   0  0  0  0  0  0
  -51.7788   -1.0165   13.0778 H   0  0  0  0  0  0
  -55.5706   -8.7313   14.8026 H   0  0  0  0  0  0
  -55.5566  -10.3842   16.0417 H   0  0  0  0  0  0
  1 12  1  0  0  0
  1 13  1  0  0  0
  2 10  1  0  0  0
  2 19  1  0  0  0
  3 11  1  0  0  0
  3 20  1  0  0  0
  4 14  1  0  0  0
  4 21  1  0  0  0
  5 16  2  0  0  0
  6  9  1  0  0  0
  6 23  1  0  0  0
  7 12  1  0  0  0
  7 15  1  0  0  0
  7 16  1  0  0  0
  8 16  1  0  0  0
  8 18  2  0  0  0
  9 18  1  0  0  0
  9 22  1  0  0  0
 10 11  1  0  0  0
 11 13  1  0  0  0
 12 10  1  0  0  0
 13 14  1  0  0  0
 15 17  2  0  0  0
 17 18  1  0  0  0
M  END
>  <CHROM.0>
62.31564909,67.10514811,176.98789789

>  <CHROM.1>
-61.76072528,-179.27218057,-170.42499660,-174.90759620,41.18276274,0.72706424
162.90522332,-52.00408573,-5.28626434,16.14465449,0.89591694,-0.53643398
-0.51721348

>  <Name>
NHC.pdb

>  <RI>
-4.41179e+08

>  <Rbt.Current_Directory>
/root/miniconda3/envs/rdock/share/rxdock-2013.1.1_148c5bd1-0/data/ligands/prepped_ligands/NHC

>  <Rbt.Executable>
rbdock/0.1.0

>  <Rbt.Library>
librxdock.so/0.1.0

>  <Rbt.Parameter_File>
/root/miniconda3/envs/rdock/share/rxdock-2013.1.1_148c5bd1-0/data/scripts/dock.prm

>  <Rbt.Receptor>
def.prm

>  <SCORE>
-15.1398

>  <SCORE.INTER>
-13.3853

>  <SCORE.INTER.CONST>
1

>  <SCORE.INTER.POLAR>
-1.99893

>  <SCORE.INTER.REPUL>
0

>  <SCORE.INTER.ROT>
3

>  <SCORE.INTER.VDW>
-14.9889

>  <SCORE.INTER.norm>
-0.743627

>  <SCORE.INTRA>
-0.774047

>  <SCORE.INTRA.DIHEDRAL>
-0.986339

>  <SCORE.INTRA.DIHEDRAL.0>
5.29717

>  <SCORE.INTRA.POLAR>
0

>  <SCORE.INTRA.POLAR.0>
0

>  <SCORE.INTRA.REPUL>
0

>  <SCORE.INTRA.REPUL.0>
0

>  <SCORE.INTRA.VDW>
-0.280877

>  <SCORE.INTRA.VDW.0>
-0.818277

>  <SCORE.INTRA.norm>
-0.0430026

>  <SCORE.RESTR>
0

>  <SCORE.RESTR.CAVITY>
0

>  <SCORE.RESTR.norm>
0

>  <SCORE.SYSTEM>
-0.980476

>  <SCORE.SYSTEM.CONST>
0

>  <SCORE.SYSTEM.DIHEDRAL>
0.282757

>  <SCORE.SYSTEM.VDW>
-1.12185

>  <SCORE.SYSTEM.norm>
-0.0544709

>  <SCORE.heavy>
18

>  <SCORE.norm>
-0.841101

$$$$
NHC.pdb
  RxDock  02242113073D
librxdock.so/0.1.0
 23 24  0  0  0  0  0  0  0  0999 V2000
  -47.0209   -1.3256   16.4221 O   0  0  0  0  0  0
  -48.9667   -4.1190   15.2956 O   0  0  0  0  0  0
  -47.3181   -4.1198   17.4682 O   0  0  0  0  0  0
  -44.3600   -0.8191   15.7604 O   0  0  0  0  0  0
  -46.6039   -0.2386   14.2191 O   0  0  0  0  0  0
  -49.2076    2.3752   11.3569 O   0  0  0  0  0  0
  -48.7044   -0.9628   14.8415 N   0  0  0  0  0  0
  -48.3566    0.6695   13.0987 N   0  0  0  0  0  0
  -50.1563    1.5984   11.9560 N   0  0  0  0  0  0
  -47.8701   -3.2277   15.2936 C   0  0  0  0  0  0
  -46.7662   -3.6724   16.2296 C   0  0  0  0  0  0
  -48.2261   -1.8619   15.8527 C   0  0  0  0  0  0
  -46.0248   -2.3685   16.4906 C   0  0  0  0  0  0
  -44.9520   -2.0680   15.4514 C   0  0  0  0  0  0
  -50.0712   -0.8641   14.6314 C   0  0  0  0  0  0
  -47.8233   -0.1758   14.0567 C   0  0  0  0  0  0
  -50.6029   -0.0555   13.7169 C   0  0  0  0  0  0
  -49.6476    0.7514   12.9139 C   0  0  0  0  0  0
  -49.6039   -3.7997   14.6350 H   0  0  0  0  0  0
  -46.6370   -4.6056   17.9618 H   0  0  0  0  0  0
  -43.9472   -0.9073   16.6367 H   0  0  0  0  0  0
  -51.1330    1.7369   11.7252 H   0  0  0  0  0  0
  -49.6612    2.6563   10.5450 H   0  0  0  0  0  0
  1 12  1  0  0  0
  1 13  1  0  0  0
  2 10  1  0  0  0
  2 19  1  0  0  0
  3 11  1  0  0  0
  3 20  1  0  0  0
  4 14  1  0  0  0
  4 21  1  0  0  0
  5 16  2  0  0  0
  6  9  1  0  0  0
  6 23  1  0  0  0
  7 12  1  0  0  0
  7 15  1  0  0  0
  7 16  1  0  0  0
  8 16  1  0  0  0
  8 18  2  0  0  0
  9 18  1  0  0  0
  9 22  1  0  0  0
 10 11  1  0  0  0
 11 13  1  0  0  0
 12 10  1  0  0  0
 13 14  1  0  0  0
 15 17  2  0  0  0
 17 18  1  0  0  0
M  END
>  <CHROM.0>
-178.31846552,74.08690480,61.10583992

>  <CHROM.1>
-176.47821456,165.68496648,61.84300896,161.29870111,-148.11454379,-5.40277394
60.92497462,-47.88013849,-1.14805507,14.73816751,-1.07527174,-0.25079781
-0.61491599

>  <Name>
NHC.pdb

>  <RI>
-4.41179e+08

>  <Rbt.Current_Directory>
/root/miniconda3/envs/rdock/share/rxdock-2013.1.1_148c5bd1-0/data/ligands/prepped_ligands/NHC

>  <Rbt.Executable>
rbdock/0.1.0

>  <Rbt.Library>
librxdock.so/0.1.0

>  <Rbt.Parameter_File>
/root/miniconda3/envs/rdock/share/rxdock-2013.1.1_148c5bd1-0/data/scripts/dock.prm

>  <Rbt.Receptor>
def.prm

>  <SCORE>
-11.8596

>  <SCORE.INTER>
-10.937

>  <SCORE.INTER.CONST>
1

>  <SCORE.INTER.POLAR>
-1.93182

>  <SCORE.INTER.REPUL>
0.290441

>  <SCORE.INTER.ROT>
3

>  <SCORE.INTER.VDW>
-14.221

>  <SCORE.INTER.norm>
-0.60761

>  <SCORE.INTRA>
-0.255527

>  <SCORE.INTRA.DIHEDRAL>
-0.958322

>  <SCORE.INTRA.DIHEDRAL.0>
5.29717

>  <SCORE.INTRA.POLAR>
0

>  <SCORE.INTRA.POLAR.0>
0

>  <SCORE.INTRA.REPUL>
0

>  <SCORE.INTRA.REPUL.0>
0

>  <SCORE.INTRA.VDW>
0.223634

>  <SCORE.INTRA.VDW.0>
-0.818277

>  <SCORE.INTRA.norm>
-0.0141959

>  <SCORE.RESTR>
0.0163193

>  <SCORE.RESTR.CAVITY>
0.0163193

>  <SCORE.RESTR.norm>
0.000906625

>  <SCORE.SYSTEM>
-0.683423

>  <SCORE.SYSTEM.CONST>
0

>  <SCORE.SYSTEM.DIHEDRAL>
0.943714

>  <SCORE.SYSTEM.POLAR>
-0.00363974

>  <SCORE.SYSTEM.VDW>
-1.1429

>  <SCORE.SYSTEM.norm>
-0.037968

>  <SCORE.heavy>
18

>  <SCORE.norm>
-0.658867

$$$$
NHC.pdb
  RxDock  02242113073D
librxdock.so/0.1.0
 23 24  0  0  0  0  0  0  0  0999 V2000
  -46.1479   -2.2002   17.8367 O   0  0  0  0  0  0
  -43.6489   -2.3107   15.2674 O   0  0  0  0  0  0
  -43.2793   -3.0726   17.8599 O   0  0  0  0  0  0
  -46.4805   -0.1141   19.7197 O   0  0  0  0  0  0
  -46.8036    0.1867   16.4730 O   0  0  0  0  0  0
  -50.2891    0.5959   13.3864 O   0  0  0  0  0  0
  -46.8099   -1.9525   15.6085 N   0  0  0  0  0  0
  -48.2880   -0.2226   14.8053 N   0  0  0  0  0  0
  -49.8083   -0.6484   13.0981 N   0  0  0  0  0  0
  -44.4545   -1.7025   16.2564 C   0  0  0  0  0  0
  -43.8271   -1.7737   17.6325 C   0  0  0  0  0  0
  -45.7679   -2.4330   16.4707 C   0  0  0  0  0  0
  -45.0362   -1.6090   18.5431 C   0  0  0  0  0  0
  -45.3784   -0.1526   18.8311 C   0  0  0  0  0  0
  -47.3712   -2.8279   14.6916 C   0  0  0  0  0  0
  -47.2798   -0.6158   15.6690 C   0  0  0  0  0  0
  -48.3427   -2.4691   13.8548 C   0  0  0  0  0  0
  -48.8070   -1.0605   13.9473 C   0  0  0  0  0  0
  -42.7802   -1.8754   15.2898 H   0  0  0  0  0  0
  -42.4190   -3.1365   17.4135 H   0  0  0  0  0  0
  -46.1941   -0.5343   20.5489 H   0  0  0  0  0  0
  -50.2440   -1.1936   12.3638 H   0  0  0  0  0  0
  -50.9637    0.7154   12.6975 H   0  0  0  0  0  0
  1 12  1  0  0  0
  1 13  1  0  0  0
  2 10  1  0  0  0
  2 19  1  0  0  0
  3 11  1  0  0  0
  3 20  1  0  0  0
  4 14  1  0  0  0
  4 21  1  0  0  0
  5 16  2  0  0  0
  6  9  1  0  0  0
  6 23  1  0  0  0
  7 12  1  0  0  0
  7 15  1  0  0  0
  7 16  1  0  0  0
  8 16  1  0  0  0
  8 18  2  0  0  0
  9 18  1  0  0  0
  9 22  1  0  0  0
 10 11  1  0  0  0
 11 13  1  0  0  0
 12 10  1  0  0  0
 13 14  1  0  0  0
 15 17  2  0  0  0
 17 18  1  0  0  0
M  END
>  <CHROM.0>
-54.92160947,-176.28157324,177.92724359

>  <CHROM.1>
-56.70748332,79.55821527,62.95109369,179.57583601,-124.33953331,-8.71640684
65.01296310,-46.51878993,-1.33235114,16.14686822,0.51509481,-0.55760492,1.09133329

>  <Name>
NHC.pdb

>  <RI>
-4.41179e+08

>  <Rbt.Current_Directory>
/root/miniconda3/envs/rdock/share/rxdock-2013.1.1_148c5bd1-0/data/ligands/prepped_ligands/NHC

>  <Rbt.Executable>
rbdock/0.1.0

>  <Rbt.Library>
librxdock.so/0.1.0

>  <Rbt.Parameter_File>
/root/miniconda3/envs/rdock/share/rxdock-2013.1.1_148c5bd1-0/data/scripts/dock.prm

>  <Rbt.Receptor>
def.prm

>  <SCORE>
-16.1629

>  <SCORE.INTER>
-14.4653

>  <SCORE.INTER.CONST>
1

>  <SCORE.INTER.POLAR>
-2.49843

>  <SCORE.INTER.REPUL>
0.0329888

>  <SCORE.INTER.ROT>
3

>  <SCORE.INTER.VDW>
-14.5356

>  <SCORE.INTER.norm>
-0.803627

>  <SCORE.INTRA>
-0.663378

>  <SCORE.INTRA.DIHEDRAL>
-0.528591

>  <SCORE.INTRA.DIHEDRAL.0>
5.29717

>  <SCORE.INTRA.POLAR>
0

>  <SCORE.INTRA.POLAR.0>
0

>  <SCORE.INTRA.REPUL>
0

>  <SCORE.INTRA.REPUL.0>
0

>  <SCORE.INTRA.VDW>
-0.399083

>  <SCORE.INTRA.VDW.0>
-0.818277

>  <SCORE.INTRA.norm>
-0.0368544

>  <SCORE.RESTR>
0

>  <SCORE.RESTR.CAVITY>
0

>  <SCORE.RESTR.norm>
0

>  <SCORE.SYSTEM>
-1.03428

>  <SCORE.SYSTEM.CONST>
0

>  <SCORE.SYSTEM.DIHEDRAL>
0.140042

>  <SCORE.SYSTEM.VDW>
-1.10431

>  <SCORE.SYSTEM.norm>
-0.0574603

>  <SCORE.heavy>
18

>  <SCORE.norm>
-0.897941

$$$$
NHC.pdb
  RxDock  02242113073D
librxdock.so/0.1.0
 23 24  0  0  0  0  0  0  0  0999 V2000
  -46.6175   -0.5319   15.6637 O   0  0  0  0  0  0
  -48.4956   -3.4693   14.8251 O   0  0  0  0  0  0
  -46.7025   -3.2752   16.8709 O   0  0  0  0  0  0
  -43.5468   -2.1912   14.6320 O   0  0  0  0  0  0
  -50.4704   -0.1693   15.2412 O   0  0  0  0  0  0
  -51.3208    2.4451   11.4688 O   0  0  0  0  0  0
  -48.4224   -0.3341   14.1914 N   0  0  0  0  0  0
  -50.2649    0.9120   13.2561 N   0  0  0  0  0  0
  -50.0493    2.0158   11.2208 N   0  0  0  0  0  0
  -47.4473   -2.5301   14.6985 C   0  0  0  0  0  0
  -46.2606   -2.8717   15.5745 C   0  0  0  0  0  0
  -47.8311   -1.1535   15.2107 C   0  0  0  0  0  0
  -45.5685   -1.5227   15.7141 C   0  0  0  0  0  0
  -44.5865   -1.2307   14.5865 C   0  0  0  0  0  0
  -47.6554    0.0153   13.0906 C   0  0  0  0  0  0
  -49.7618    0.1243   14.2775 C   0  0  0  0  0  0
  -48.1222    0.7697   12.0978 C   0  0  0  0  0  0
  -49.5289    1.2317   12.2248 C   0  0  0  0  0  0
  -48.1881   -4.3046   14.4349 H   0  0  0  0  0  0
  -45.9303   -3.5187   17.4075 H   0  0  0  0  0  0
  -42.9503   -2.0025   13.8872 H   0  0  0  0  0  0
  -49.6166    2.2267   10.3294 H   0  0  0  0  0  0
  -51.6268    2.6913   10.5801 H   0  0  0  0  0  0
  1 12  1  0  0  0
  1 13  1  0  0  0
  2 10  1  0  0  0
  2 19  1  0  0  0
  3 11  1  0  0  0
  3 20  1  0  0  0
  4 14  1  0  0  0
  4 21  1  0  0  0
  5 16  2  0  0  0
  6  9  1  0  0  0
  6 23  1  0  0  0
  7 12  1  0  0  0
  7 15  1  0  0  0
  7 16  1  0  0  0
  8 16  1  0  0  0
  8 18  2  0  0  0
  9 18  1  0  0  0
  9 22  1  0  0  0
 10 11  1  0  0  0
 11 13  1  0  0  0
 12 10  1  0  0  0
 13 14  1  0  0  0
 15 17  2  0  0  0
 17 18  1  0  0  0
M  END
>  <CHROM.0>
-179.68355878,-63.21058558,64.88716499

>  <CHROM.1>
-68.47959762,178.10138990,178.16866711,-160.99794132,54.50170328,3.29130098
179.57479464,-47.90800376,-0.69287599,14.17928775,-0.83418538,0.10853846
-0.79320232

>  <Name>
NHC.pdb

>  <RI>
-4.41179e+08

>  <Rbt.Current_Directory>
/root/miniconda3/envs/rdock/share/rxdock-2013.1.1_148c5bd1-0/data/ligands/prepped_ligands/NHC

>  <Rbt.Executable>
rbdock/0.1.0

>  <Rbt.Library>
librxdock.so/0.1.0

>  <Rbt.Parameter_File>
/root/miniconda3/envs/rdock/share/rxdock-2013.1.1_148c5bd1-0/data/scripts/dock.prm

>  <Rbt.Receptor>
def.prm

>  <SCORE>
-17.3077

>  <SCORE.INTER>
-15.1134

>  <SCORE.INTER.CONST>
1

>  <SCORE.INTER.POLAR>
-1.80227

>  <SCORE.INTER.REPUL>
0

>  <SCORE.INTER.ROT>
3

>  <SCORE.INTER.VDW>
-17.3857

>  <SCORE.INTER.norm>
-0.839632

>  <SCORE.INTRA>
-1.18719

>  <SCORE.INTRA.DIHEDRAL>
-1.63356

>  <SCORE.INTRA.DIHEDRAL.0>
5.29717

>  <SCORE.INTRA.POLAR>
0

>  <SCORE.INTRA.POLAR.0>
0

>  <SCORE.INTRA.REPUL>
0

>  <SCORE.INTRA.REPUL.0>
0

>  <SCORE.INTRA.VDW>
-0.370407

>  <SCORE.INTRA.VDW.0>
-0.818277

>  <SCORE.INTRA.norm>
-0.0659548

>  <SCORE.RESTR>
0

>  <SCORE.RESTR.CAVITY>
0

>  <SCORE.RESTR.norm>
0

>  <SCORE.SYSTEM>
-1.0071

>  <SCORE.SYSTEM.CONST>
0

>  <SCORE.SYSTEM.DIHEDRAL>
0.105627

>  <SCORE.SYSTEM.POLAR>
-0.0108129

>  <SCORE.SYSTEM.VDW>
-1.02315

>  <SCORE.SYSTEM.norm>
-0.0559502

>  <SCORE.heavy>
18

>  <SCORE.norm>
-0.961537

$$$$
NHC.pdb
  RxDock  02242113073D
librxdock.so/0.1.0
 23 24  0  0  0  0  0  0  0  0999 V2000
  -45.5331   -2.8398   17.7548 O   0  0  0  0  0  0
  -44.7032   -1.9498   14.3817 O   0  0  0  0  0  0
  -42.9121   -2.2748   16.4126 O   0  0  0  0  0  0
  -44.4962    0.4481   18.9208 O   0  0  0  0  0  0
  -46.9575   -3.0169   13.7951 O   0  0  0  0  0  0
  -51.9232   -3.4844   16.6330 O   0  0  0  0  0  0
  -47.1592   -3.0800   16.0927 N   0  0  0  0  0  0
  -49.0636   -3.2185   14.6174 N   0  0  0  0  0  0
  -51.2191   -3.4224   15.4656 N   0  0  0  0  0  0
  -45.1520   -1.7203   15.7019 C   0  0  0  0  0  0
  -44.0145   -1.3982   16.6478 C   0  0  0  0  0  0
  -45.7504   -2.9612   16.3397 C   0  0  0  0  0  0
  -44.6149   -1.7531   18.0012 C   0  0  0  0  0  0
  -45.3956   -0.6071   18.6322 C   0  0  0  0  0  0
  -48.0189   -3.1751   17.1763 C   0  0  0  0  0  0
  -47.6936   -3.1010   14.7792 C   0  0  0  0  0  0
  -49.3387   -3.2863   17.0408 C   0  0  0  0  0  0
  -49.8602   -3.3063   15.6494 C   0  0  0  0  0  0
  -45.4657   -2.2568   13.8632 H   0  0  0  0  0  0
  -43.2243   -3.1939   16.4497 H   0  0  0  0  0  0
  -45.0219    1.1794   19.2882 H   0  0  0  0  0  0
  -51.7049   -3.5341   14.5836 H   0  0  0  0  0  0
  -52.8357   -3.5777   16.3127 H   0  0  0  0  0  0
  1 12  1  0  0  0
  1 13  1  0  0  0
  2 10  1  0  0  0
  2 19  1  0  0  0
  3 11  1  0  0  0
  3 20  1  0  0  0
  4 14  1  0  0  0
  4 21  1  0  0  0
  5 16  2  0  0  0
  6  9  1  0  0  0
  6 23  1  0  0  0
  7 12  1  0  0  0
  7 15  1  0  0  0
  7 16  1  0  0  0
  8 16  1  0  0  0
  8 18  2  0  0  0
  9 18  1  0  0  0
  9 22  1  0  0  0
 10 11  1  0  0  0
 11 13  1  0  0  0
 12 10  1  0  0  0
 13 14  1  0  0  0
 15 17  2  0  0  0
 17 18  1  0  0  0
M  END
>  <CHROM.0>
62.69062969,179.17947815,177.52231978

>  <CHROM.1>
173.03956334,-53.13481255,177.74686207,-179.06228868,-5.39938557,-179.08827327
178.01723662,-46.84399449,-2.42680639,16.33661438,0.32475199,0.22233179,1.19944232

>  <Name>
NHC.pdb

>  <RI>
-4.41179e+08

>  <Rbt.Current_Directory>
/root/miniconda3/envs/rdock/share/rxdock-2013.1.1_148c5bd1-0/data/ligands/prepped_ligands/NHC

>  <Rbt.Executable>
rbdock/0.1.0

>  <Rbt.Library>
librxdock.so/0.1.0

>  <Rbt.Parameter_File>
/root/miniconda3/envs/rdock/share/rxdock-2013.1.1_148c5bd1-0/data/scripts/dock.prm

>  <Rbt.Receptor>
def.prm

>  <SCORE>
-10.2648

>  <SCORE.INTER>
-7.21026

>  <SCORE.INTER.CONST>
1

>  <SCORE.INTER.POLAR>
-1.44847

>  <SCORE.INTER.REPUL>
0.258351

>  <SCORE.INTER.ROT>
3

>  <SCORE.INTER.VDW>
-11.9772

>  <SCORE.INTER.norm>
-0.40057

>  <SCORE.INTRA>
-1.98789

>  <SCORE.INTRA.DIHEDRAL>
-1.94145

>  <SCORE.INTRA.DIHEDRAL.0>
5.29717

>  <SCORE.INTRA.POLAR>
-0.944264

>  <SCORE.INTRA.POLAR.0>
0

>  <SCORE.INTRA.REPUL>
0

>  <SCORE.INTRA.REPUL.0>
0

>  <SCORE.INTRA.VDW>
2.19333

>  <SCORE.INTRA.VDW.0>
-0.818277

>  <SCORE.INTRA.norm>
-0.110438

>  <SCORE.RESTR>
0

>  <SCORE.RESTR.CAVITY>
0

>  <SCORE.RESTR.norm>
0

>  <SCORE.SYSTEM>
-1.06662

>  <SCORE.SYSTEM.CONST>
0

>  <SCORE.SYSTEM.DIHEDRAL>
0.0365131

>  <SCORE.SYSTEM.VDW>
-1.08487

>  <SCORE.SYSTEM.norm>
-0.0592564

>  <SCORE.heavy>
18

>  <SCORE.norm>
-0.570264

$$$$
