NHC.pdb
  RxDock  02242109573D
librxdock.so/0.1.0
 23 24  0  0  0  0  0  0  0  0999 V2000
  -51.5764   -2.9625   17.5622 O   0  0  0  0  0  0
  -53.6579   -4.1174   14.8803 O   0  0  0  0  0  0
  -54.2156   -4.3853   17.5365 O   0  0  0  0  0  0
  -50.0295   -5.0604   16.7452 O   0  0  0  0  0  0
  -50.2919   -0.8001   17.0079 O   0  0  0  0  0  0
  -47.4773    0.3134   13.4549 O   0  0  0  0  0  0
  -51.1385   -2.2127   15.3919 N   0  0  0  0  0  0
  -49.3091   -0.6983   14.9644 N   0  0  0  0  0  0
  -48.3079   -0.5967   12.8681 N   0  0  0  0  0  0
  -52.5711   -4.1687   15.7821 C   0  0  0  0  0  0
  -52.9389   -4.8409   17.0879 C   0  0  0  0  0  0
  -52.1335   -2.7919   16.2488 C   0  0  0  0  0  0
  -51.8844   -4.2904   18.0382 C   0  0  0  0  0  0
  -50.5956   -5.1028   18.0427 C   0  0  0  0  0  0
  -51.0557   -2.6492   14.0786 C   0  0  0  0  0  0
  -50.2439   -1.2110   15.8478 C   0  0  0  0  0  0
  -50.1656   -2.1668   13.2141 C   0  0  0  0  0  0
  -49.2449   -1.1202   13.7293 C   0  0  0  0  0  0
  -53.3710   -3.6048   14.1060 H   0  0  0  0  0  0
  -54.2074   -3.4151   17.5838 H   0  0  0  0  0  0
  -49.2209   -5.6005   16.7682 H   0  0  0  0  0  0
  -48.2366   -0.7675   11.8721 H   0  0  0  0  0  0
  -46.6306    0.1241   13.0176 H   0  0  0  0  0  0
  1 12  1  0  0  0
  1 13  1  0  0  0
  2 10  1  0  0  0
  2 19  1  0  0  0
  3 11  1  0  0  0
  3 20  1  0  0  0
  4 14  1  0  0  0
  4 21  1  0  0  0
  5 16  2  0  0  0
  6  9  1  0  0  0
  6 23  1  0  0  0
  7 12  1  0  0  0
  7 15  1  0  0  0
  7 16  1  0  0  0
  8 16  1  0  0  0
  8 18  2  0  0  0
  9 18  1  0  0  0
  9 22  1  0  0  0
 10 11  1  0  0  0
 11 13  1  0  0  0
 12 10  1  0  0  0
 13 14  1  0  0  0
 15 17  2  0  0  0
 17 18  1  0  0  0
M  END
>  <CHROM.0>
-179.66220985,-66.15657404,-157.80937626

>  <CHROM.1>
174.92418509,-54.36402434,-178.78261853,143.20171392,141.50984413,2.57734393
-55.18693650,-50.93504429,-2.72534797,15.70976498,-2.35858455,-0.53515515
-1.19422018

>  <Name>
NHC.pdb

>  <RI>
-7.13018e+08

>  <Rbt.Current_Directory>
/root/miniconda3/envs/rdock/share/rxdock-2013.1.1_148c5bd1-0/data/ligands/prepped_ligands/NHC

>  <Rbt.Executable>
rbdock/0.1.0

>  <Rbt.Library>
librxdock.so/0.1.0

>  <Rbt.Parameter_File>
/root/miniconda3/envs/rdock/share/rxdock-2013.1.1_148c5bd1-0/data/scripts/dock.prm

>  <Rbt.Receptor>
def.prm

>  <SCORE>
-13.0046

>  <SCORE.INTER>
-14.1966

>  <SCORE.INTER.CONST>
1

>  <SCORE.INTER.POLAR>
-2.8115

>  <SCORE.INTER.REPUL>
0

>  <SCORE.INTER.ROT>
3

>  <SCORE.INTER.VDW>
-13.0375

>  <SCORE.INTER.norm>
-0.788703

>  <SCORE.INTRA>
1.52623

>  <SCORE.INTRA.DIHEDRAL>
-0.414222

>  <SCORE.INTRA.DIHEDRAL.0>
5.29717

>  <SCORE.INTRA.POLAR>
0

>  <SCORE.INTRA.POLAR.0>
0

>  <SCORE.INTRA.REPUL>
0

>  <SCORE.INTRA.REPUL.0>
0

>  <SCORE.INTRA.VDW>
1.73334

>  <SCORE.INTRA.VDW.0>
-0.818277

>  <SCORE.INTRA.norm>
0.0847907

>  <SCORE.RESTR>
0

>  <SCORE.RESTR.CAVITY>
0

>  <SCORE.RESTR.norm>
0

>  <SCORE.SYSTEM>
-0.334232

>  <SCORE.SYSTEM.CONST>
0

>  <SCORE.SYSTEM.DIHEDRAL>
1.25563

>  <SCORE.SYSTEM.POLAR>
-0.0176367

>  <SCORE.SYSTEM.VDW>
-0.902082

>  <SCORE.SYSTEM.norm>
-0.0185685

>  <SCORE.heavy>
18

>  <SCORE.norm>
-0.72248

$$$$
NHC.pdb
  RxDock  02242109573D
librxdock.so/0.1.0
 23 24  0  0  0  0  0  0  0  0999 V2000
  -48.2062   -2.4747   17.2403 O   0  0  0  0  0  0
  -49.8403   -5.0014   15.2898 O   0  0  0  0  0  0
  -48.8556   -5.3460   17.8097 O   0  0  0  0  0  0
  -45.3890   -2.1390   17.4776 O   0  0  0  0  0  0
  -47.2174   -1.0513   15.5224 O   0  0  0  0  0  0
  -48.9268    2.0624   12.4689 O   0  0  0  0  0  0
  -49.3780   -1.8357   15.3212 N   0  0  0  0  0  0
  -48.5430    0.0186   14.0223 N   0  0  0  0  0  0
  -49.9064    1.1124   12.4887 N   0  0  0  0  0  0
  -48.7620   -4.1831   15.6959 C   0  0  0  0  0  0
  -47.9717   -4.7960   16.8325 C   0  0  0  0  0  0
  -49.2216   -2.8701   16.3037 C   0  0  0  0  0  0
  -47.2962   -3.5767   17.4450 C   0  0  0  0  0  0
  -45.9706   -3.2262   16.7808 C   0  0  0  0  0  0
  -50.6050   -1.6967   14.6909 C   0  0  0  0  0  0
  -48.3192   -0.9558   14.9801 C   0  0  0  0  0  0
  -50.8399   -0.7648   13.7694 C   0  0  0  0  0  0
  -49.7059    0.1367   13.4381 C   0  0  0  0  0  0
  -50.3364   -4.5150   14.6102 H   0  0  0  0  0  0
  -48.3349   -5.8292   18.4721 H   0  0  0  0  0  0
  -45.1222   -2.4699   18.3524 H   0  0  0  0  0  0
  -50.7151    1.2172   11.8875 H   0  0  0  0  0  0
  -49.2204    2.6389   11.7440 H   0  0  0  0  0  0
  1 12  1  0  0  0
  1 13  1  0  0  0
  2 10  1  0  0  0
  2 19  1  0  0  0
  3 11  1  0  0  0
  3 20  1  0  0  0
  4 14  1  0  0  0
  4 21  1  0  0  0
  5 16  2  0  0  0
  6  9  1  0  0  0
  6 23  1  0  0  0
  7 12  1  0  0  0
  7 15  1  0  0  0
  7 16  1  0  0  0
  8 16  1  0  0  0
  8 18  2  0  0  0
  9 18  1  0  0  0
  9 22  1  0  0  0
 10 11  1  0  0  0
 11 13  1  0  0  0
 12 10  1  0  0  0
 13 14  1  0  0  0
 15 17  2  0  0  0
 17 18  1  0  0  0
M  END
>  <CHROM.0>
-74.11003746,-175.74996536,-60.92110955

>  <CHROM.1>
175.74029892,173.04495178,68.92525483,178.82867057,-152.84251875,-13.89329337
66.67013815,-48.56851557,-2.04483010,15.44861096,-1.26370301,-0.48219198
-0.54092984

>  <Name>
NHC.pdb

>  <RI>
-7.13018e+08

>  <Rbt.Current_Directory>
/root/miniconda3/envs/rdock/share/rxdock-2013.1.1_148c5bd1-0/data/ligands/prepped_ligands/NHC

>  <Rbt.Executable>
rbdock/0.1.0

>  <Rbt.Library>
librxdock.so/0.1.0

>  <Rbt.Parameter_File>
/root/miniconda3/envs/rdock/share/rxdock-2013.1.1_148c5bd1-0/data/scripts/dock.prm

>  <Rbt.Receptor>
def.prm

>  <SCORE>
-9.61887

>  <SCORE.INTER>
-8.64102

>  <SCORE.INTER.CONST>
1

>  <SCORE.INTER.POLAR>
-1.08219

>  <SCORE.INTER.REPUL>
0.0622876

>  <SCORE.INTER.ROT>
3

>  <SCORE.INTER.VDW>
-13.673

>  <SCORE.INTER.norm>
-0.480057

>  <SCORE.INTRA>
-0.248761

>  <SCORE.INTRA.DIHEDRAL>
-1.11046

>  <SCORE.INTRA.DIHEDRAL.0>
5.29717

>  <SCORE.INTRA.POLAR>
0

>  <SCORE.INTRA.POLAR.0>
0

>  <SCORE.INTRA.REPUL>
0

>  <SCORE.INTRA.REPUL.0>
0

>  <SCORE.INTRA.VDW>
0.306469

>  <SCORE.INTRA.VDW.0>
-0.818277

>  <SCORE.INTRA.norm>
-0.01382

>  <SCORE.RESTR>
0

>  <SCORE.RESTR.CAVITY>
0

>  <SCORE.RESTR.norm>
0

>  <SCORE.SYSTEM>
-0.729086

>  <SCORE.SYSTEM.CONST>
0

>  <SCORE.SYSTEM.DIHEDRAL>
0.570598

>  <SCORE.SYSTEM.VDW>
-1.01439

>  <SCORE.SYSTEM.norm>
-0.0405048

>  <SCORE.heavy>
18

>  <SCORE.norm>
-0.534382

$$$$
NHC.pdb
  RxDock  02242109573D
librxdock.so/0.1.0
 23 24  0  0  0  0  0  0  0  0999 V2000
  -48.5030   -0.9326   16.8691 O   0  0  0  0  0  0
  -45.9544   -2.4211   14.8325 O   0  0  0  0  0  0
  -46.4425   -3.0333   17.4449 O   0  0  0  0  0  0
  -46.0282    0.6847   18.9881 O   0  0  0  0  0  0
  -50.6549   -0.3670   15.5230 O   0  0  0  0  0  0
  -51.1460    2.4617   11.8154 O   0  0  0  0  0  0
  -48.5737   -0.6047   14.5557 N   0  0  0  0  0  0
  -50.3368    0.6938   13.5418 N   0  0  0  0  0  0
  -50.0059    1.7764   11.5106 N   0  0  0  0  0  0
  -46.5324   -1.4226   15.6487 C   0  0  0  0  0  0
  -46.2613   -1.6548   17.1200 C   0  0  0  0  0  0
  -48.0498   -1.4359   15.6019 C   0  0  0  0  0  0
  -47.3844   -0.8662   17.7795 C   0  0  0  0  0  0
  -47.0399    0.6012   18.0005 C   0  0  0  0  0  0
  -47.7533   -0.2876   13.4840 C   0  0  0  0  0  0
  -49.8999   -0.1029   14.5864 C   0  0  0  0  0  0
  -48.1560    0.4747   12.4695 C   0  0  0  0  0  0
  -49.5509    0.9826   12.5385 C   0  0  0  0  0  0
  -46.2169   -2.2367   13.9151 H   0  0  0  0  0  0
  -45.8567   -3.5704   16.8865 H   0  0  0  0  0  0
  -45.2272    0.2812   18.6117 H   0  0  0  0  0  0
  -49.6256    1.8326   10.5732 H   0  0  0  0  0  0
  -51.8364    1.8405   11.5298 H   0  0  0  0  0  0
  1 12  1  0  0  0
  1 13  1  0  0  0
  2 10  1  0  0  0
  2 19  1  0  0  0
  3 11  1  0  0  0
  3 20  1  0  0  0
  4 14  1  0  0  0
  4 21  1  0  0  0
  5 16  2  0  0  0
  6  9  1  0  0  0
  6 23  1  0  0  0
  7 12  1  0  0  0
  7 15  1  0  0  0
  7 16  1  0  0  0
  8 16  1  0  0  0
  8 18  2  0  0  0
  9 18  1  0  0  0
  9 22  1  0  0  0
 10 11  1  0  0  0
 11 13  1  0  0  0
 12 10  1  0  0  0
 13 14  1  0  0  0
 15 17  2  0  0  0
 17 18  1  0  0  0
M  END
>  <CHROM.0>
-54.70219195,-62.95716495,54.47727867

>  <CHROM.1>
176.47964211,57.29590200,66.34416317,-90.19877025,139.65483809,15.71632759
174.53383036,-48.21978388,-0.31656881,15.16770172,0.69951558,-0.79326331
1.33479249

>  <Name>
NHC.pdb

>  <RI>
-7.13018e+08

>  <Rbt.Current_Directory>
/root/miniconda3/envs/rdock/share/rxdock-2013.1.1_148c5bd1-0/data/ligands/prepped_ligands/NHC

>  <Rbt.Executable>
rbdock/0.1.0

>  <Rbt.Library>
librxdock.so/0.1.0

>  <Rbt.Parameter_File>
/root/miniconda3/envs/rdock/share/rxdock-2013.1.1_148c5bd1-0/data/scripts/dock.prm

>  <Rbt.Receptor>
def.prm

>  <SCORE>
-16.0053

>  <SCORE.INTER>
-18.0426

>  <SCORE.INTER.CONST>
1

>  <SCORE.INTER.POLAR>
-3.75122

>  <SCORE.INTER.REPUL>
0

>  <SCORE.INTER.ROT>
3

>  <SCORE.INTER.VDW>
-13.6884

>  <SCORE.INTER.norm>
-1.00237

>  <SCORE.INTRA>
3.03644

>  <SCORE.INTRA.DIHEDRAL>
3.1587

>  <SCORE.INTRA.DIHEDRAL.0>
5.29717

>  <SCORE.INTRA.POLAR>
-0.0153435

>  <SCORE.INTRA.POLAR.0>
0

>  <SCORE.INTRA.REPUL>
0

>  <SCORE.INTRA.REPUL.0>
0

>  <SCORE.INTRA.VDW>
1.50925

>  <SCORE.INTRA.VDW.0>
-0.818277

>  <SCORE.INTRA.norm>
0.168691

>  <SCORE.RESTR>
0

>  <SCORE.RESTR.CAVITY>
0

>  <SCORE.RESTR.norm>
0

>  <SCORE.SYSTEM>
-0.999166

>  <SCORE.SYSTEM.CONST>
0

>  <SCORE.SYSTEM.DIHEDRAL>
0.18738

>  <SCORE.SYSTEM.VDW>
-1.09286

>  <SCORE.SYSTEM.norm>
-0.0555092

>  <SCORE.heavy>
18

>  <SCORE.norm>
-0.889183

$$$$
NHC.pdb
  RxDock  02242109573D
librxdock.so/0.1.0
 23 24  0  0  0  0  0  0  0  0999 V2000
  -46.4306   -0.5854   16.0189 O   0  0  0  0  0  0
  -48.2932   -3.5964   15.4502 O   0  0  0  0  0  0
  -46.3797   -3.2642   17.3649 O   0  0  0  0  0  0
  -43.4299   -2.2762   14.8437 O   0  0  0  0  0  0
  -50.2648   -0.2070   15.8775 O   0  0  0  0  0  0
  -51.3185    2.3210   12.0784 O   0  0  0  0  0  0
  -48.3283   -0.4970   14.6569 N   0  0  0  0  0  0
  -50.2309    0.7186   13.8053 N   0  0  0  0  0  0
  -50.1913    1.6626   11.6805 N   0  0  0  0  0  0
  -47.2757   -2.6456   15.2100 C   0  0  0  0  0  0
  -46.0291   -2.9196   16.0244 C   0  0  0  0  0  0
  -47.6565   -1.2518   15.6761 C   0  0  0  0  0  0
  -45.3592   -1.5526   16.0517 C   0  0  0  0  0  0
  -44.4566   -1.3008   14.8505 C   0  0  0  0  0  0
  -47.6636   -0.2484   13.4659 C   0  0  0  0  0  0
  -49.6460   -0.0025   14.8323 C   0  0  0  0  0  0
  -48.2101    0.4407   12.4663 C   0  0  0  0  0  0
  -49.5909    0.9434   12.6884 C   0  0  0  0  0  0
  -49.0392   -3.3798   14.8662 H   0  0  0  0  0  0
  -47.0469   -3.9699   17.3467 H   0  0  0  0  0  0
  -42.9110   -2.1509   15.6568 H   0  0  0  0  0  0
  -49.9210    1.6816   10.7043 H   0  0  0  0  0  0
  -51.5796    2.7829   11.2644 H   0  0  0  0  0  0
  1 12  1  0  0  0
  1 13  1  0  0  0
  2 10  1  0  0  0
  2 19  1  0  0  0
  3 11  1  0  0  0
  3 20  1  0  0  0
  4 14  1  0  0  0
  4 21  1  0  0  0
  5 16  2  0  0  0
  6  9  1  0  0  0
  6 23  1  0  0  0
  7 12  1  0  0  0
  7 15  1  0  0  0
  7 16  1  0  0  0
  8 16  1  0  0  0
  8 18  2  0  0  0
  9 18  1  0  0  0
  9 22  1  0  0  0
 10 11  1  0  0  0
 11 13  1  0  0  0
 12 10  1  0  0  0
 13 14  1  0  0  0
 15 17  2  0  0  0
 17 18  1  0  0  0
M  END
>  <CHROM.0>
-49.21511910,63.76459996,-56.79847407

>  <CHROM.1>
-177.43419515,51.06363949,-62.68143236,178.27986074,57.72001173,13.46711959
-177.79975222,-47.80904996,-0.82486773,14.63980608,-0.78425708,0.15487490
-0.84975995

>  <Name>
NHC.pdb

>  <RI>
-7.13018e+08

>  <Rbt.Current_Directory>
/root/miniconda3/envs/rdock/share/rxdock-2013.1.1_148c5bd1-0/data/ligands/prepped_ligands/NHC

>  <Rbt.Executable>
rbdock/0.1.0

>  <Rbt.Library>
librxdock.so/0.1.0

>  <Rbt.Parameter_File>
/root/miniconda3/envs/rdock/share/rxdock-2013.1.1_148c5bd1-0/data/scripts/dock.prm

>  <Rbt.Receptor>
def.prm

>  <SCORE>
-13.8739

>  <SCORE.INTER>
-12.0899

>  <SCORE.INTER.CONST>
1

>  <SCORE.INTER.POLAR>
-1.29578

>  <SCORE.INTER.REPUL>
0.00197159

>  <SCORE.INTER.ROT>
3

>  <SCORE.INTER.VDW>
-16.0941

>  <SCORE.INTER.norm>
-0.671662

>  <SCORE.INTRA>
-0.963923

>  <SCORE.INTRA.DIHEDRAL>
-1.03343

>  <SCORE.INTRA.DIHEDRAL.0>
5.29717

>  <SCORE.INTRA.POLAR>
-0.064149

>  <SCORE.INTRA.POLAR.0>
0

>  <SCORE.INTRA.REPUL>
0

>  <SCORE.INTRA.REPUL.0>
0

>  <SCORE.INTRA.VDW>
-0.229101

>  <SCORE.INTRA.VDW.0>
-0.818277

>  <SCORE.INTRA.norm>
-0.0535513

>  <SCORE.RESTR>
0

>  <SCORE.RESTR.CAVITY>
0

>  <SCORE.RESTR.norm>
0

>  <SCORE.SYSTEM>
-0.820018

>  <SCORE.SYSTEM.CONST>
0

>  <SCORE.SYSTEM.DIHEDRAL>
0.364421

>  <SCORE.SYSTEM.POLAR>
-0.00813662

>  <SCORE.SYSTEM.VDW>
-0.974564

>  <SCORE.SYSTEM.norm>
-0.0455566

>  <SCORE.heavy>
18

>  <SCORE.norm>
-0.77077

$$$$
NHC.pdb
  RxDock  02242109573D
librxdock.so/0.1.0
 23 24  0  0  0  0  0  0  0  0999 V2000
  -52.6570   -2.9292   15.2491 O   0  0  0  0  0  0
  -51.1907   -3.7939   18.4051 O   0  0  0  0  0  0
  -51.1829   -1.3040   17.2925 O   0  0  0  0  0  0
  -50.4893   -4.3420   14.3273 O   0  0  0  0  0  0
  -52.4886   -5.8755   18.2252 O   0  0  0  0  0  0
  -54.1395   -9.7469   16.1302 O   0  0  0  0  0  0
  -53.1910   -4.9906   16.2134 N   0  0  0  0  0  0
  -53.5730   -7.2937   16.8235 N   0  0  0  0  0  0
  -54.6823   -8.7427   15.3823 N   0  0  0  0  0  0
  -51.2548   -3.6990   16.9966 C   0  0  0  0  0  0
  -50.7113   -2.3822   16.4839 C   0  0  0  0  0  0
  -52.6810   -3.6751   16.4769 C   0  0  0  0  0  0
  -51.3783   -2.2714   15.1197 C   0  0  0  0  0  0
  -50.5983   -2.9660   14.0105 C   0  0  0  0  0  0
  -53.8336   -5.2258   15.0077 C   0  0  0  0  0  0
  -53.0554   -6.0507   17.1458 C   0  0  0  0  0  0
  -54.3356   -6.4144   14.6790 C   0  0  0  0  0  0
  -54.1753   -7.4990   15.6822 C   0  0  0  0  0  0
  -50.2534   -3.7499   18.6585 H   0  0  0  0  0  0
  -50.9063   -1.4525   18.2118 H   0  0  0  0  0  0
  -49.8729   -4.4151   15.0761 H   0  0  0  0  0  0
  -55.3351   -8.9695   14.6414 H   0  0  0  0  0  0
  -54.7429  -10.4852   15.9437 H   0  0  0  0  0  0
  1 12  1  0  0  0
  1 13  1  0  0  0
  2 10  1  0  0  0
  2 19  1  0  0  0
  3 11  1  0  0  0
  3 20  1  0  0  0
  4 14  1  0  0  0
  4 21  1  0  0  0
  5 16  2  0  0  0
  6  9  1  0  0  0
  6 23  1  0  0  0
  7 12  1  0  0  0
  7 15  1  0  0  0
  7 16  1  0  0  0
  8 16  1  0  0  0
  8 18  2  0  0  0
  9 18  1  0  0  0
  9 22  1  0  0  0
 10 11  1  0  0  0
 11 13  1  0  0  0
 12 10  1  0  0  0
 13 14  1  0  0  0
 15 17  2  0  0  0
 17 18  1  0  0  0
M  END
>  <CHROM.0>
56.91108728,-62.17739888,-176.30266494

>  <CHROM.1>
-62.21164962,58.41791592,-70.94673185,167.21420917,-14.51613894,-19.65068989
-56.74035860,-52.49180252,-4.95392113,16.12513609,0.11601711,-1.07174634
-1.39487932

>  <Name>
NHC.pdb

>  <RI>
-7.13018e+08

>  <Rbt.Current_Directory>
/root/miniconda3/envs/rdock/share/rxdock-2013.1.1_148c5bd1-0/data/ligands/prepped_ligands/NHC

>  <Rbt.Executable>
rbdock/0.1.0

>  <Rbt.Library>
librxdock.so/0.1.0

>  <Rbt.Parameter_File>
/root/miniconda3/envs/rdock/share/rxdock-2013.1.1_148c5bd1-0/data/scripts/dock.prm

>  <Rbt.Receptor>
def.prm

>  <SCORE>
-11.8731

>  <SCORE.INTER>
-12.4149

>  <SCORE.INTER.CONST>
1

>  <SCORE.INTER.POLAR>
-1.28134

>  <SCORE.INTER.REPUL>
0

>  <SCORE.INTER.ROT>
3

>  <SCORE.INTER.VDW>
-16.4583

>  <SCORE.INTER.norm>
-0.689715

>  <SCORE.INTRA>
1.59598

>  <SCORE.INTRA.DIHEDRAL>
-0.447696

>  <SCORE.INTRA.DIHEDRAL.0>
5.29717

>  <SCORE.INTRA.POLAR>
0

>  <SCORE.INTRA.POLAR.0>
0

>  <SCORE.INTRA.REPUL>
0

>  <SCORE.INTRA.REPUL.0>
0

>  <SCORE.INTRA.VDW>
1.81983

>  <SCORE.INTRA.VDW.0>
-0.818277

>  <SCORE.INTRA.norm>
0.0886654

>  <SCORE.RESTR>
0

>  <SCORE.RESTR.CAVITY>
0

>  <SCORE.RESTR.norm>
0

>  <SCORE.SYSTEM>
-1.05421

>  <SCORE.SYSTEM.CONST>
0

>  <SCORE.SYSTEM.DIHEDRAL>
0.0799612

>  <SCORE.SYSTEM.POLAR>
-0.00998434

>  <SCORE.SYSTEM.VDW>
-1.06024

>  <SCORE.SYSTEM.norm>
-0.0585672

>  <SCORE.heavy>
18

>  <SCORE.norm>
-0.659617

$$$$
NHC.pdb
  RxDock  02242109573D
librxdock.so/0.1.0
 23 24  0  0  0  0  0  0  0  0999 V2000
  -49.1510   -1.9539   13.6602 O   0  0  0  0  0  0
  -46.0331   -0.2805   14.2409 O   0  0  0  0  0  0
  -46.5027   -2.9327   14.6694 O   0  0  0  0  0  0
  -51.1487   -2.3010   15.4961 O   0  0  0  0  0  0
  -50.8195   -0.2333   13.8963 O   0  0  0  0  0  0
  -52.0372    3.6402   11.5852 O   0  0  0  0  0  0
  -48.8427    0.1915   12.7847 N   0  0  0  0  0  0
  -50.7660    1.6386   12.6136 N   0  0  0  0  0  0
  -50.7063    3.5536   11.2959 N   0  0  0  0  0  0
  -47.3567   -0.6784   14.5356 C   0  0  0  0  0  0
  -47.4095   -2.0043   15.2647 C   0  0  0  0  0  0
  -48.1701   -0.9722   13.2879 C   0  0  0  0  0  0
  -48.8261   -2.4759   14.9665 C   0  0  0  0  0  0
  -49.8567   -1.9490   15.9571 C   0  0  0  0  0  0
  -48.1570    1.0372   11.9264 C   0  0  0  0  0  0
  -50.1818    0.4979   13.1375 C   0  0  0  0  0  0
  -48.7024    2.1369   11.4109 C   0  0  0  0  0  0
  -50.1060    2.4249   11.8051 C   0  0  0  0  0  0
  -46.0842    0.5094   13.6770 H   0  0  0  0  0  0
  -46.4940   -2.7953   13.7078 H   0  0  0  0  0  0
  -51.3408   -1.7381   14.7264 H   0  0  0  0  0  0
  -50.2803    4.2488   10.6945 H   0  0  0  0  0  0
  -52.1655    2.8767   12.1722 H   0  0  0  0  0  0
  1 12  1  0  0  0
  1 13  1  0  0  0
  2 10  1  0  0  0
  2 19  1  0  0  0
  3 11  1  0  0  0
  3 20  1  0  0  0
  4 14  1  0  0  0
  4 21  1  0  0  0
  5 16  2  0  0  0
  6  9  1  0  0  0
  6 23  1  0  0  0
  7 12  1  0  0  0
  7 15  1  0  0  0
  7 16  1  0  0  0
  8 16  1  0  0  0
  8 18  2  0  0  0
  9 18  1  0  0  0
  9 22  1  0  0  0
 10 11  1  0  0  0
 11 13  1  0  0  0
 12 10  1  0  0  0
 13 14  1  0  0  0
 15 17  2  0  0  0
 17 18  1  0  0  0
M  END
>  <CHROM.0>
59.76488171,60.89704166,60.85362356

>  <CHROM.1>
172.70508266,-36.36905770,-72.34893540,5.38790213,-156.15907746,-7.63169486
55.56052529,-49.17112821,-0.06622348,13.49915506,1.13890665,-0.12924535,2.50440362

>  <Name>
NHC.pdb

>  <RI>
-7.13018e+08

>  <Rbt.Current_Directory>
/root/miniconda3/envs/rdock/share/rxdock-2013.1.1_148c5bd1-0/data/ligands/prepped_ligands/NHC

>  <Rbt.Executable>
rbdock/0.1.0

>  <Rbt.Library>
librxdock.so/0.1.0

>  <Rbt.Parameter_File>
/root/miniconda3/envs/rdock/share/rxdock-2013.1.1_148c5bd1-0/data/scripts/dock.prm

>  <Rbt.Receptor>
def.prm

>  <SCORE>
-15.6007

>  <SCORE.INTER>
-13.4266

>  <SCORE.INTER.CONST>
1

>  <SCORE.INTER.POLAR>
-1.06969

>  <SCORE.INTER.REPUL>
0

>  <SCORE.INTER.ROT>
3

>  <SCORE.INTER.VDW>
-18.1897

>  <SCORE.INTER.norm>
-0.745925

>  <SCORE.INTRA>
-1.20703

>  <SCORE.INTRA.DIHEDRAL>
0.919023

>  <SCORE.INTRA.DIHEDRAL.0>
5.29717

>  <SCORE.INTRA.POLAR>
-1.31638

>  <SCORE.INTRA.POLAR.0>
0

>  <SCORE.INTRA.REPUL>
0

>  <SCORE.INTRA.REPUL.0>
0

>  <SCORE.INTRA.VDW>
2.80915

>  <SCORE.INTRA.VDW.0>
-0.818277

>  <SCORE.INTRA.norm>
-0.0670575

>  <SCORE.RESTR>
0.0137433

>  <SCORE.RESTR.CAVITY>
0.0137433

>  <SCORE.RESTR.norm>
0.000763515

>  <SCORE.SYSTEM>
-0.980802

>  <SCORE.SYSTEM.CONST>
0

>  <SCORE.SYSTEM.DIHEDRAL>
0.00558298

>  <SCORE.SYSTEM.POLAR>
-0.00307238

>  <SCORE.SYSTEM.VDW>
-0.973147

>  <SCORE.SYSTEM.norm>
-0.054489

>  <SCORE.heavy>
18

>  <SCORE.norm>
-0.866708

$$$$
NHC.pdb
  RxDock  02242109573D
librxdock.so/0.1.0
 23 24  0  0  0  0  0  0  0  0999 V2000
  -51.6224   -2.5765   15.8652 O   0  0  0  0  0  0
  -51.3308   -5.8530   14.4374 O   0  0  0  0  0  0
  -53.6732   -4.5252   14.8716 O   0  0  0  0  0  0
  -53.2354   -3.9053   18.8429 O   0  0  0  0  0  0
  -49.4397   -3.9432   17.3735 O   0  0  0  0  0  0
  -44.8582   -2.5666   14.2305 O   0  0  0  0  0  0
  -49.5210   -3.3140   15.1551 N   0  0  0  0  0  0
  -47.4698   -3.3324   16.4258 N   0  0  0  0  0  0
  -45.4549   -2.7032   15.4502 N   0  0  0  0  0  0
  -51.3671   -4.9002   15.4806 C   0  0  0  0  0  0
  -52.7748   -4.6429   15.9751 C   0  0  0  0  0  0
  -50.9356   -3.5179   15.0247 C   0  0  0  0  0  0
  -52.6405   -3.2695   16.6187 C   0  0  0  0  0  0
  -52.1951   -3.3282   18.0744 C   0  0  0  0  0  0
  -48.8082   -2.8706   14.0517 C   0  0  0  0  0  0
  -48.8360   -3.5504   16.3742 C   0  0  0  0  0  0
  -47.4951   -2.6531   14.0824 C   0  0  0  0  0  0
  -46.8128   -2.9135   15.3767 C   0  0  0  0  0  0
  -51.6685   -6.6911   14.7954 H   0  0  0  0  0  0
  -53.3931   -3.7818   14.3126 H   0  0  0  0  0  0
  -52.9133   -3.9681   19.7586 H   0  0  0  0  0  0
  -44.8832   -2.7153   16.2866 H   0  0  0  0  0  0
  -43.9154   -2.5875   14.4644 H   0  0  0  0  0  0
  1 12  1  0  0  0
  1 13  1  0  0  0
  2 10  1  0  0  0
  2 19  1  0  0  0
  3 11  1  0  0  0
  3 20  1  0  0  0
  4 14  1  0  0  0
  4 21  1  0  0  0
  5 16  2  0  0  0
  6  9  1  0  0  0
  6 23  1  0  0  0
  7 12  1  0  0  0
  7 15  1  0  0  0
  7 16  1  0  0  0
  8 16  1  0  0  0
  8 18  2  0  0  0
  9 18  1  0  0  0
  9 22  1  0  0  0
 10 11  1  0  0  0
 11 13  1  0  0  0
 12 10  1  0  0  0
 13 14  1  0  0  0
 15 17  2  0  0  0
 17 18  1  0  0  0
M  END
>  <CHROM.0>
-179.21643120,177.44488828,66.23212922

>  <CHROM.1>
-62.24801211,-60.31874765,177.54642668,-170.40668341,-114.63175184,165.89843331
175.14075613,-49.95514612,-3.60159062,15.78407251,-2.95754053,-0.25078312
-1.80993025

>  <Name>
NHC.pdb

>  <RI>
-7.13018e+08

>  <Rbt.Current_Directory>
/root/miniconda3/envs/rdock/share/rxdock-2013.1.1_148c5bd1-0/data/ligands/prepped_ligands/NHC

>  <Rbt.Executable>
rbdock/0.1.0

>  <Rbt.Library>
librxdock.so/0.1.0

>  <Rbt.Parameter_File>
/root/miniconda3/envs/rdock/share/rxdock-2013.1.1_148c5bd1-0/data/scripts/dock.prm

>  <Rbt.Receptor>
def.prm

>  <SCORE>
-10.1175

>  <SCORE.INTER>
-8.70344

>  <SCORE.INTER.CONST>
1

>  <SCORE.INTER.POLAR>
-0.939651

>  <SCORE.INTER.REPUL>
0

>  <SCORE.INTER.ROT>
3

>  <SCORE.INTER.VDW>
-13.9086

>  <SCORE.INTER.norm>
-0.483524

>  <SCORE.INTRA>
-0.431364

>  <SCORE.INTRA.DIHEDRAL>
-1.75791

>  <SCORE.INTRA.DIHEDRAL.0>
5.29717

>  <SCORE.INTRA.POLAR>
0

>  <SCORE.INTRA.POLAR.0>
0

>  <SCORE.INTRA.REPUL>
0

>  <SCORE.INTRA.REPUL.0>
0

>  <SCORE.INTRA.VDW>
0.447591

>  <SCORE.INTRA.VDW.0>
-0.818277

>  <SCORE.INTRA.norm>
-0.0239647

>  <SCORE.RESTR>
0

>  <SCORE.RESTR.CAVITY>
0

>  <SCORE.RESTR.norm>
0

>  <SCORE.SYSTEM>
-0.982676

>  <SCORE.SYSTEM.CONST>
0

>  <SCORE.SYSTEM.DIHEDRAL>
0.123292

>  <SCORE.SYSTEM.POLAR>
-0.0127747

>  <SCORE.SYSTEM.VDW>
-1.00089

>  <SCORE.SYSTEM.norm>
-0.0545931

>  <SCORE.heavy>
18

>  <SCORE.norm>
-0.562082

$$$$
NHC.pdb
  RxDock  02242109573D
librxdock.so/0.1.0
 23 24  0  0  0  0  0  0  0  0999 V2000
  -46.6138   -0.4241   15.9092 O   0  0  0  0  0  0
  -48.3364   -3.4732   15.1381 O   0  0  0  0  0  0
  -46.6119   -3.1202   17.2212 O   0  0  0  0  0  0
  -43.5150   -2.0642   14.9409 O   0  0  0  0  0  0
  -50.4339   -0.1566   15.4207 O   0  0  0  0  0  0
  -51.2562    2.3252   11.5462 O   0  0  0  0  0  0
  -48.3836   -0.3644   14.3831 N   0  0  0  0  0  0
  -50.2366    0.8073   13.3752 N   0  0  0  0  0  0
  -50.0294    1.7907   11.2783 N   0  0  0  0  0  0
  -47.3274   -2.4932   15.0022 C   0  0  0  0  0  0
  -46.1519   -2.7471   15.9220 C   0  0  0  0  0  0
  -47.7857   -1.1167   15.4492 C   0  0  0  0  0  0
  -45.5241   -1.3639   16.0263 C   0  0  0  0  0  0
  -44.5245   -1.0714   14.9144 C   0  0  0  0  0  0
  -47.6189   -0.0738   13.2637 C   0  0  0  0  0  0
  -49.7271    0.0859   14.4415 C   0  0  0  0  0  0
  -48.0917    0.6163   12.2279 C   0  0  0  0  0  0
  -49.5027    1.0721   12.3270 C   0  0  0  0  0  0
  -47.9861   -4.3051   14.7779 H   0  0  0  0  0  0
  -47.1039   -3.9552   17.1557 H   0  0  0  0  0  0
  -43.1139   -2.0407   15.8267 H   0  0  0  0  0  0
  -49.6353    1.8871   10.3500 H   0  0  0  0  0  0
  -51.4790    2.7505   10.7015 H   0  0  0  0  0  0
  1 12  1  0  0  0
  1 13  1  0  0  0
  2 10  1  0  0  0
  2 19  1  0  0  0
  3 11  1  0  0  0
  3 20  1  0  0  0
  4 14  1  0  0  0
  4 21  1  0  0  0
  5 16  2  0  0  0
  6  9  1  0  0  0
  6 23  1  0  0  0
  7 12  1  0  0  0
  7 15  1  0  0  0
  7 16  1  0  0  0
  8 16  1  0  0  0
  8 18  2  0  0  0
  9 18  1  0  0  0
  9 22  1  0  0  0
 10 11  1  0  0  0
 11 13  1  0  0  0
 12 10  1  0  0  0
 13 14  1  0  0  0
 15 17  2  0  0  0
 17 18  1  0  0  0
M  END
>  <CHROM.0>
-47.26167889,-57.64379402,-178.85129693

>  <CHROM.1>
-69.27151900,62.94940157,-57.73976152,-177.63791185,57.29617340,8.92125611
-174.56733245,-47.85784539,-0.69288242,14.40432454,-0.83388940,0.07924325
-0.83430772

>  <Name>
NHC.pdb

>  <RI>
-7.13018e+08

>  <Rbt.Current_Directory>
/root/miniconda3/envs/rdock/share/rxdock-2013.1.1_148c5bd1-0/data/ligands/prepped_ligands/NHC

>  <Rbt.Executable>
rbdock/0.1.0

>  <Rbt.Library>
librxdock.so/0.1.0

>  <Rbt.Parameter_File>
/root/miniconda3/envs/rdock/share/rxdock-2013.1.1_148c5bd1-0/data/scripts/dock.prm

>  <Rbt.Receptor>
def.prm

>  <SCORE>
-16.8262

>  <SCORE.INTER>
-15.1945

>  <SCORE.INTER.CONST>
1

>  <SCORE.INTER.POLAR>
-2.19432

>  <SCORE.INTER.REPUL>
0.00414234

>  <SCORE.INTER.ROT>
3

>  <SCORE.INTER.VDW>
-16.1546

>  <SCORE.INTER.norm>
-0.844141

>  <SCORE.INTRA>
-0.830986

>  <SCORE.INTRA.DIHEDRAL>
-1.38372

>  <SCORE.INTRA.DIHEDRAL.0>
5.29717

>  <SCORE.INTRA.POLAR>
0

>  <SCORE.INTRA.POLAR.0>
0

>  <SCORE.INTRA.REPUL>
0

>  <SCORE.INTRA.REPUL.0>
0

>  <SCORE.INTRA.VDW>
-0.139128

>  <SCORE.INTRA.VDW.0>
-0.818277

>  <SCORE.INTRA.norm>
-0.0461659

>  <SCORE.RESTR>
0

>  <SCORE.RESTR.CAVITY>
0

>  <SCORE.RESTR.norm>
0

>  <SCORE.SYSTEM>
-0.800627

>  <SCORE.SYSTEM.CONST>
0

>  <SCORE.SYSTEM.DIHEDRAL>
0.406878

>  <SCORE.SYSTEM.POLAR>
-0.00475111

>  <SCORE.SYSTEM.VDW>
-0.987913

>  <SCORE.SYSTEM.norm>
-0.0444793

>  <SCORE.heavy>
18

>  <SCORE.norm>
-0.934786

$$$$
NHC.pdb
  RxDock  02242109573D
librxdock.so/0.1.0
 23 24  0  0  0  0  0  0  0  0999 V2000
  -49.8553   -2.3036   16.2790 O   0  0  0  0  0  0
  -48.1975   -5.2710   17.4214 O   0  0  0  0  0  0
  -47.2584   -2.7276   17.7165 O   0  0  0  0  0  0
  -48.8432   -3.3570   13.8437 O   0  0  0  0  0  0
  -50.7881   -6.1556   17.7021 O   0  0  0  0  0  0
  -54.5023   -7.5302   15.2165 O   0  0  0  0  0  0
  -51.0523   -4.3105   16.3421 N   0  0  0  0  0  0
  -52.5590   -6.1944   16.2828 N   0  0  0  0  0  0
  -54.3701   -6.2296   14.8248 N   0  0  0  0  0  0
  -48.6001   -4.3035   16.4733 C   0  0  0  0  0  0
  -47.6407   -3.1343   16.4023 C   0  0  0  0  0  0
  -49.9019   -3.6204   16.8521 C   0  0  0  0  0  0
  -48.5161   -2.0391   15.8088 C   0  0  0  0  0  0
  -48.5388   -2.0463   14.2855 C   0  0  0  0  0  0
  -51.8058   -3.7040   15.3489 C   0  0  0  0  0  0
  -51.4366   -5.5887   16.8217 C   0  0  0  0  0  0
  -52.8864   -4.2714   14.8169 C   0  0  0  0  0  0
  -53.2579   -5.6094   15.3464 C   0  0  0  0  0  0
  -47.2992   -5.5562   17.1844 H   0  0  0  0  0  0
  -46.6111   -2.0065   17.6496 H   0  0  0  0  0  0
  -48.0411   -3.8934   13.9656 H   0  0  0  0  0  0
  -55.0214   -5.8426   14.1522 H   0  0  0  0  0  0
  -53.5853   -7.7701   15.4299 H   0  0  0  0  0  0
  1 12  1  0  0  0
  1 13  1  0  0  0
  2 10  1  0  0  0
  2 19  1  0  0  0
  3 11  1  0  0  0
  3 20  1  0  0  0
  4 14  1  0  0  0
  4 21  1  0  0  0
  5 16  2  0  0  0
  6  9  1  0  0  0
  6 23  1  0  0  0
  7 12  1  0  0  0
  7 15  1  0  0  0
  7 16  1  0  0  0
  8 16  1  0  0  0
  8 18  2  0  0  0
  9 18  1  0  0  0
  9 22  1  0  0  0
 10 11  1  0  0  0
 11 13  1  0  0  0
 12 10  1  0  0  0
 13 14  1  0  0  0
 15 17  2  0  0  0
 17 18  1  0  0  0
M  END
>  <CHROM.0>
-57.42898624,66.77039630,53.76862203

>  <CHROM.1>
-56.68702252,177.27878234,-75.36241865,-24.34219825,6.15240525,-10.02211373
-65.96997184,-50.50504023,-4.37744697,15.99854883,0.27674466,-0.49624556
-0.79927741

>  <Name>
NHC.pdb

>  <RI>
-7.13018e+08

>  <Rbt.Current_Directory>
/root/miniconda3/envs/rdock/share/rxdock-2013.1.1_148c5bd1-0/data/ligands/prepped_ligands/NHC

>  <Rbt.Executable>
rbdock/0.1.0

>  <Rbt.Library>
librxdock.so/0.1.0

>  <Rbt.Parameter_File>
/root/miniconda3/envs/rdock/share/rxdock-2013.1.1_148c5bd1-0/data/scripts/dock.prm

>  <Rbt.Receptor>
def.prm

>  <SCORE>
-9.7416

>  <SCORE.INTER>
-9.89873

>  <SCORE.INTER.CONST>
1

>  <SCORE.INTER.POLAR>
-2.01076

>  <SCORE.INTER.REPUL>
0

>  <SCORE.INTER.ROT>
3

>  <SCORE.INTER.VDW>
-11.4622

>  <SCORE.INTER.norm>
-0.549929

>  <SCORE.INTRA>
1.09897

>  <SCORE.INTRA.DIHEDRAL>
-0.138221

>  <SCORE.INTRA.DIHEDRAL.0>
5.29717

>  <SCORE.INTRA.POLAR>
-0.236019

>  <SCORE.INTRA.POLAR.0>
0

>  <SCORE.INTRA.REPUL>
0

>  <SCORE.INTRA.REPUL.0>
0

>  <SCORE.INTRA.VDW>
1.97054

>  <SCORE.INTRA.VDW.0>
-0.818277

>  <SCORE.INTRA.norm>
0.0610538

>  <SCORE.RESTR>
0

>  <SCORE.RESTR.CAVITY>
0

>  <SCORE.RESTR.norm>
0

>  <SCORE.SYSTEM>
-0.941842

>  <SCORE.SYSTEM.CONST>
0

>  <SCORE.SYSTEM.DIHEDRAL>
0.338384

>  <SCORE.SYSTEM.VDW>
-1.11103

>  <SCORE.SYSTEM.norm>
-0.0523246

>  <SCORE.heavy>
18

>  <SCORE.norm>
-0.5412

$$$$
NHC.pdb
  RxDock  02242109573D
librxdock.so/0.1.0
 23 24  0  0  0  0  0  0  0  0999 V2000
  -49.3674   -2.4850   16.4974 O   0  0  0  0  0  0
  -49.0398    0.9070   17.6134 O   0  0  0  0  0  0
  -51.3858   -0.3139   16.9474 O   0  0  0  0  0  0
  -50.4270   -1.4656   13.1730 O   0  0  0  0  0  0
  -46.8333    0.1109   18.6366 O   0  0  0  0  0  0
  -42.6148   -1.8873   18.5207 O   0  0  0  0  0  0
  -47.3472   -1.8036   17.4558 N   0  0  0  0  0  0
  -45.1088   -1.2998   18.2030 N   0  0  0  0  0  0
  -43.3455   -2.7476   17.7537 N   0  0  0  0  0  0
  -48.9917   -0.1530   16.6800 C   0  0  0  0  0  0
  -50.3234   -0.3770   15.9955 C   0  0  0  0  0  0
  -48.7447   -1.4992   17.3369 C   0  0  0  0  0  0
  -50.2012   -1.8196   15.5244 C   0  0  0  0  0  0
  -49.5361   -1.9528   14.1602 C   0  0  0  0  0  0
  -46.8719   -2.9781   16.8931 C   0  0  0  0  0  0
  -46.4438   -0.9407   18.1273 C   0  0  0  0  0  0
  -45.5918   -3.3392   16.9536 C   0  0  0  0  0  0
  -44.6768   -2.4102   17.6665 C   0  0  0  0  0  0
  -48.2081    0.8917   18.1160 H   0  0  0  0  0  0
  -51.2697   -1.0243   17.5996 H   0  0  0  0  0  0
  -50.0177   -1.6391   12.3079 H   0  0  0  0  0  0
  -42.8763   -3.4986   17.2615 H   0  0  0  0  0  0
  -41.7248   -2.2726   18.4627 H   0  0  0  0  0  0
  1 12  1  0  0  0
  1 13  1  0  0  0
  2 10  1  0  0  0
  2 19  1  0  0  0
  3 11  1  0  0  0
  3 20  1  0  0  0
  4 14  1  0  0  0
  4 21  1  0  0  0
  5 16  2  0  0  0
  6  9  1  0  0  0
  6 23  1  0  0  0
  7 12  1  0  0  0
  7 15  1  0  0  0
  7 16  1  0  0  0
  8 16  1  0  0  0
  8 18  2  0  0  0
  9 18  1  0  0  0
  9 22  1  0  0  0
 10 11  1  0  0  0
 11 13  1  0  0  0
 12 10  1  0  0  0
 13 14  1  0  0  0
 15 17  2  0  0  0
 17 18  1  0  0  0
M  END
>  <CHROM.0>
177.18538685,-57.84880211,-66.27507417

>  <CHROM.1>
170.43811261,-62.19123080,-174.66958819,-179.69139344,-5.62062266,5.08284580
172.17714227,-47.63088805,-1.43386602,16.88578761,-2.96614520,-0.38647168
0.84178103

>  <Name>
NHC.pdb

>  <RI>
-7.13018e+08

>  <Rbt.Current_Directory>
/root/miniconda3/envs/rdock/share/rxdock-2013.1.1_148c5bd1-0/data/ligands/prepped_ligands/NHC

>  <Rbt.Executable>
rbdock/0.1.0

>  <Rbt.Library>
librxdock.so/0.1.0

>  <Rbt.Parameter_File>
/root/miniconda3/envs/rdock/share/rxdock-2013.1.1_148c5bd1-0/data/scripts/dock.prm

>  <Rbt.Receptor>
def.prm

>  <SCORE>
-17.9653

>  <SCORE.INTER>
-14.6164

>  <SCORE.INTER.CONST>
1

>  <SCORE.INTER.POLAR>
-3.48634

>  <SCORE.INTER.REPUL>
0

>  <SCORE.INTER.ROT>
3

>  <SCORE.INTER.VDW>
-11.1628

>  <SCORE.INTER.norm>
-0.81202

>  <SCORE.INTRA>
-2.57981

>  <SCORE.INTRA.DIHEDRAL>
-1.43984

>  <SCORE.INTRA.DIHEDRAL.0>
5.29717

>  <SCORE.INTRA.POLAR>
-0.991884

>  <SCORE.INTRA.POLAR.0>
0

>  <SCORE.INTRA.REPUL>
0

>  <SCORE.INTRA.REPUL.0>
0

>  <SCORE.INTRA.VDW>
1.51252

>  <SCORE.INTRA.VDW.0>
-0.818277

>  <SCORE.INTRA.norm>
-0.143323

>  <SCORE.RESTR>
0.198347

>  <SCORE.RESTR.CAVITY>
0.198347

>  <SCORE.RESTR.norm>
0.0110193

>  <SCORE.SYSTEM>
-0.967508

>  <SCORE.SYSTEM.CONST>
0

>  <SCORE.SYSTEM.DIHEDRAL>
0.145904

>  <SCORE.SYSTEM.VDW>
-1.04046

>  <SCORE.SYSTEM.norm>
-0.0537505

>  <SCORE.heavy>
18

>  <SCORE.norm>
-0.998074

$$$$
