Baricitinib.pdb
  RxDock  02242101093D
librxdock.so/0.1.0
 27 30  0  0  0  0  0  0  0  0999 V2000
  -49.6413   -1.8768   13.6224 S   0  0  0  0  0  0
  -48.5782   -2.3050   12.7737 O   0  0  0  0  0  0
  -50.6636   -1.0333   13.0936 O   0  0  0  0  0  0
  -48.9544   -1.0703   14.8393 N   0  0  0  0  0  0
  -48.7509   -2.6049   17.3478 N   0  0  0  0  0  0
  -49.8628   -2.9499   18.0317 N   0  0  0  0  0  0
  -45.9362   -1.1979   19.1551 N   0  0  0  0  0  0
  -46.9000   -6.3690   18.4116 N   0  0  0  0  0  0
  -49.4422   -9.4925   17.7992 N   0  0  0  0  0  0
  -47.2519   -8.7714   18.4121 N   0  0  0  0  0  0
  -48.5022   -1.2745   16.7654 C   0  0  0  0  0  0
  -47.6970   -1.4730   15.4556 C   0  0  0  0  0  0
  -49.7191   -0.6729   16.0134 C   0  0  0  0  0  0
  -47.8006   -0.2018   17.6360 C   0  0  0  0  0  0
  -50.4145   -3.3439   14.3513 C   0  0  0  0  0  0
  -48.0173   -3.7417   17.2858 C   0  0  0  0  0  0
  -48.6070   -4.7946   17.8924 C   0  0  0  0  0  0
  -46.7492   -0.7637   18.4929 C   0  0  0  0  0  0
  -49.8034   -4.2129   18.3548 C   0  0  0  0  0  0
  -51.7391   -2.9549   15.0249 C   0  0  0  0  0  0
  -48.1864   -6.1738   18.0463 C   0  0  0  0  0  0
  -49.0273   -7.2597   17.8421 C   0  0  0  0  0  0
  -48.5209   -8.5274   18.0354 C   0  0  0  0  0  0
  -50.3853   -7.4856   17.4445 C   0  0  0  0  0  0
  -46.5220   -7.6567   18.5731 C   0  0  0  0  0  0
  -50.5783   -8.8019   17.4351 C   0  0  0  0  0  0
  -49.3377  -10.3639   17.8618 H   0  0  0  0  0  0
  1  2  2  0  0  0
  1  3  2  0  0  0
  1  4  1  0  0  0
  1 15  1  0  0  0
  4 12  1  0  0  0
  4 13  1  0  0  0
  5  6  1  0  0  0
  5 11  1  0  0  0
  5 16  1  0  0  0
  6 19  2  0  0  0
  7 18  3  0  0  0
  8 21  1  0  0  0
  8 25  2  0  0  0
  9 23  1  0  0  0
  9 26  1  0  0  0
  9 27  1  0  0  0
 10 23  1  0  0  0
 10 25  1  0  0  0
 11 12  1  0  0  0
 11 13  1  0  0  0
 11 14  1  0  0  0
 14 18  1  0  0  0
 15 20  1  0  0  0
 16 17  2  0  0  0
 17 19  1  0  0  0
 21 17  1  0  0  0
 21 22  1  0  0  0
 22 23  2  0  0  0
 22 24  1  0  0  0
 24 26  2  0  0  0
M  END
>  <CHROM.0>
51.92900514,-59.27672762,-58.39146599

>  <CHROM.1>
-38.39435320,-167.89614621,-146.00380801,37.59829325,45.07432900,-48.85057257
-3.94774881,16.60882954,1.70454937,-0.89651595,-0.33331270

>  <HEADER>
                                                                          

>  <MASTER>
        0    0    0    0    0    0    0    0   43    0   43    0          

>  <Name>
Baricitinib.pdb

>  <RI>
-6.18188e+08

>  <Rbt.Current_Directory>
/root/miniconda3/envs/rdock/share/rxdock-2013.1.1_148c5bd1-0/data/ligands/prepped_ligands/Baricitinib

>  <Rbt.Executable>
rbdock/0.1.0

>  <Rbt.Library>
librxdock.so/0.1.0

>  <Rbt.Parameter_File>
/root/miniconda3/envs/rdock/share/rxdock-2013.1.1_148c5bd1-0/data/scripts/dock.prm

>  <Rbt.Receptor>
def.prm

>  <SCORE>
-14.7058

>  <SCORE.INTER>
-13.0797

>  <SCORE.INTER.CONST>
1

>  <SCORE.INTER.POLAR>
-1.52131

>  <SCORE.INTER.REPUL>
0.00813297

>  <SCORE.INTER.ROT>
5

>  <SCORE.INTER.VDW>
-18.3479

>  <SCORE.INTER.norm>
-0.503065

>  <SCORE.INTRA>
-0.682641

>  <SCORE.INTRA.DIHEDRAL>
-1.37685

>  <SCORE.INTRA.DIHEDRAL.0>
6.89936

>  <SCORE.INTRA.POLAR>
0

>  <SCORE.INTRA.POLAR.0>
0

>  <SCORE.INTRA.REPUL>
0

>  <SCORE.INTRA.REPUL.0>
0

>  <SCORE.INTRA.VDW>
0.00578306

>  <SCORE.INTRA.VDW.0>
-2.33692

>  <SCORE.INTRA.norm>
-0.0262554

>  <SCORE.RESTR>
1.43858e-05

>  <SCORE.RESTR.CAVITY>
1.43858e-05

>  <SCORE.RESTR.norm>
5.533e-07

>  <SCORE.SYSTEM>
-0.943491

>  <SCORE.SYSTEM.CONST>
0

>  <SCORE.SYSTEM.DIHEDRAL>
0.171985

>  <SCORE.SYSTEM.POLAR>
-0.00471649

>  <SCORE.SYSTEM.VDW>
-1.01345

>  <SCORE.SYSTEM.norm>
-0.0362881

>  <SCORE.heavy>
26

>  <SCORE.norm>
-0.565608

>  <TITLE>
    44205240_D                                                            

$$$$
Baricitinib.pdb
  RxDock  02242101093D
librxdock.so/0.1.0
 27 30  0  0  0  0  0  0  0  0999 V2000
  -46.8158   -0.9676   17.9183 S   0  0  0  0  0  0
  -47.4271   -2.0812   18.5663 O   0  0  0  0  0  0
  -47.1548    0.3558   18.3306 O   0  0  0  0  0  0
  -47.2023   -1.0827   16.3561 N   0  0  0  0  0  0
  -48.5347   -3.6071   15.6205 N   0  0  0  0  0  0
  -47.8164   -4.4949   16.3409 N   0  0  0  0  0  0
  -49.2655   -4.0916   12.2804 N   0  0  0  0  0  0
  -50.8419   -7.1997   17.3273 N   0  0  0  0  0  0
  -54.5503   -6.3246   15.8864 N   0  0  0  0  0  0
  -53.1909   -7.7971   17.1813 N   0  0  0  0  0  0
  -47.9992   -2.3570   15.0533 C   0  0  0  0  0  0
  -48.5753   -1.1772   15.8777 C   0  0  0  0  0  0
  -46.5412   -2.0397   15.4795 C   0  0  0  0  0  0
  -48.2117   -2.0749   13.5447 C   0  0  0  0  0  0
  -45.0180   -1.1671   18.0177 C   0  0  0  0  0  0
  -49.7954   -4.1020   15.6210 C   0  0  0  0  0  0
  -49.9178   -5.2581   16.3084 C   0  0  0  0  0  0
  -48.8059   -3.2124   12.8317 C   0  0  0  0  0  0
  -48.5960   -5.4574   16.7520 C   0  0  0  0  0  0
  -44.3240   -0.0235   17.2627 C   0  0  0  0  0  0
  -51.0668   -6.1030   16.5703 C   0  0  0  0  0  0
  -52.3421   -5.8339   16.0914 C   0  0  0  0  0  0
  -53.3628   -6.7005   16.4197 C   0  0  0  0  0  0
  -52.9778   -4.8428   15.2749 C   0  0  0  0  0  0
  -51.9224   -7.9704   17.5840 C   0  0  0  0  0  0
  -54.2636   -5.1727   15.1857 C   0  0  0  0  0  0
  -55.3287   -6.7270   15.9673 H   0  0  0  0  0  0
  1  2  2  0  0  0
  1  3  2  0  0  0
  1  4  1  0  0  0
  1 15  1  0  0  0
  4 12  1  0  0  0
  4 13  1  0  0  0
  5  6  1  0  0  0
  5 11  1  0  0  0
  5 16  1  0  0  0
  6 19  2  0  0  0
  7 18  3  0  0  0
  8 21  1  0  0  0
  8 25  2  0  0  0
  9 23  1  0  0  0
  9 26  1  0  0  0
  9 27  1  0  0  0
 10 23  1  0  0  0
 10 25  1  0  0  0
 11 12  1  0  0  0
 11 13  1  0  0  0
 11 14  1  0  0  0
 14 18  1  0  0  0
 15 20  1  0  0  0
 16 17  2  0  0  0
 17 19  1  0  0  0
 21 17  1  0  0  0
 21 22  1  0  0  0
 22 23  2  0  0  0
 22 24  1  0  0  0
 24 26  2  0  0  0
M  END
>  <CHROM.0>
60.12741981,-176.94389338,174.70319783

>  <CHROM.1>
55.04376614,176.94373813,-107.86487764,-6.93549754,-178.90648682,-49.27191115
-3.65073928,16.27606906,-0.05482273,0.71834477,1.81352615

>  <HEADER>
                                                                          

>  <MASTER>
        0    0    0    0    0    0    0    0   43    0   43    0          

>  <Name>
Baricitinib.pdb

>  <RI>
-6.18188e+08

>  <Rbt.Current_Directory>
/root/miniconda3/envs/rdock/share/rxdock-2013.1.1_148c5bd1-0/data/ligands/prepped_ligands/Baricitinib

>  <Rbt.Executable>
rbdock/0.1.0

>  <Rbt.Library>
librxdock.so/0.1.0

>  <Rbt.Parameter_File>
/root/miniconda3/envs/rdock/share/rxdock-2013.1.1_148c5bd1-0/data/scripts/dock.prm

>  <Rbt.Receptor>
def.prm

>  <SCORE>
-11.7653

>  <SCORE.INTER>
-11.6903

>  <SCORE.INTER.CONST>
1

>  <SCORE.INTER.POLAR>
-0.350707

>  <SCORE.INTER.REPUL>
0

>  <SCORE.INTER.ROT>
5

>  <SCORE.INTER.VDW>
-20.8979

>  <SCORE.INTER.norm>
-0.449629

>  <SCORE.INTRA>
0.97016

>  <SCORE.INTRA.DIHEDRAL>
1.83148

>  <SCORE.INTRA.DIHEDRAL.0>
6.89936

>  <SCORE.INTRA.POLAR>
0

>  <SCORE.INTRA.POLAR.0>
0

>  <SCORE.INTRA.REPUL>
0

>  <SCORE.INTRA.REPUL.0>
0

>  <SCORE.INTRA.VDW>
0.0544185

>  <SCORE.INTRA.VDW.0>
-2.33692

>  <SCORE.INTRA.norm>
0.0373138

>  <SCORE.RESTR>
0

>  <SCORE.RESTR.CAVITY>
0

>  <SCORE.RESTR.norm>
0

>  <SCORE.SYSTEM>
-1.04508

>  <SCORE.SYSTEM.CONST>
0

>  <SCORE.SYSTEM.DIHEDRAL>
0.119182

>  <SCORE.SYSTEM.VDW>
-1.10467

>  <SCORE.SYSTEM.norm>
-0.0401953

>  <SCORE.heavy>
26

>  <SCORE.norm>
-0.45251

>  <TITLE>
    44205240_D                                                            

$$$$
Baricitinib.pdb
  RxDock  02242101093D
librxdock.so/0.1.0
 27 30  0  0  0  0  0  0  0  0999 V2000
  -44.2155   -1.7831   17.3473 S   0  0  0  0  0  0
  -43.0578   -2.1934   16.6226 O   0  0  0  0  0  0
  -44.9275   -2.7401   18.1305 O   0  0  0  0  0  0
  -45.2548   -1.2082   16.2553 N   0  0  0  0  0  0
  -47.6893   -2.8370   15.9248 N   0  0  0  0  0  0
  -47.1232   -3.7746   16.7144 N   0  0  0  0  0  0
  -50.0206    0.0892   15.1119 N   0  0  0  0  0  0
  -51.6544   -4.3823   16.4028 N   0  0  0  0  0  0
  -51.7434   -8.2646   17.6333 N   0  0  0  0  0  0
  -52.9788   -6.3472   16.9327 N   0  0  0  0  0  0
  -46.9903   -1.6543   15.3921 C   0  0  0  0  0  0
  -46.5979   -0.7546   16.5921 C   0  0  0  0  0  0
  -45.5095   -1.9122   15.0061 C   0  0  0  0  0  0
  -47.7022   -0.7908   14.3204 C   0  0  0  0  0  0
  -43.7592   -0.3860   18.4062 C   0  0  0  0  0  0
  -48.9872   -3.2102   15.8221 C   0  0  0  0  0  0
  -49.2777   -4.3361   16.5092 C   0  0  0  0  0  0
  -49.0098   -0.2946   14.7668 C   0  0  0  0  0  0
  -48.0235   -4.6509   17.0674 C   0  0  0  0  0  0
  -42.7049   -0.8309   19.4308 C   0  0  0  0  0  0
  -50.5205   -5.0633   16.6804 C   0  0  0  0  0  0
  -50.5845   -6.3852   17.1009 C   0  0  0  0  0  0
  -51.8235   -6.9796   17.2110 C   0  0  0  0  0  0
  -49.6699   -7.4124   17.5027 C   0  0  0  0  0  0
  -52.8071   -5.0739   16.5448 C   0  0  0  0  0  0
  -50.3937   -8.4877   17.8025 C   0  0  0  0  0  0
  -52.4047   -8.8286   17.7709 H   0  0  0  0  0  0
  1  2  2  0  0  0
  1  3  2  0  0  0
  1  4  1  0  0  0
  1 15  1  0  0  0
  4 12  1  0  0  0
  4 13  1  0  0  0
  5  6  1  0  0  0
  5 11  1  0  0  0
  5 16  1  0  0  0
  6 19  2  0  0  0
  7 18  3  0  0  0
  8 21  1  0  0  0
  8 25  2  0  0  0
  9 23  1  0  0  0
  9 26  1  0  0  0
  9 27  1  0  0  0
 10 23  1  0  0  0
 10 25  1  0  0  0
 11 12  1  0  0  0
 11 13  1  0  0  0
 11 14  1  0  0  0
 14 18  1  0  0  0
 15 20  1  0  0  0
 16 17  2  0  0  0
 17 19  1  0  0  0
 21 17  1  0  0  0
 21 22  1  0  0  0
 22 23  2  0  0  0
 22 24  1  0  0  0
 24 26  2  0  0  0
M  END
>  <CHROM.0>
65.58104298,63.83959824,-178.38808745

>  <CHROM.1>
176.46331707,-62.78631950,-65.04010402,56.46910697,-18.54486456,-47.88547691
-3.39145917,16.72275101,-0.55576335,0.34525708,2.65959714

>  <HEADER>
                                                                          

>  <MASTER>
        0    0    0    0    0    0    0    0   43    0   43    0          

>  <Name>
Baricitinib.pdb

>  <RI>
-6.18188e+08

>  <Rbt.Current_Directory>
/root/miniconda3/envs/rdock/share/rxdock-2013.1.1_148c5bd1-0/data/ligands/prepped_ligands/Baricitinib

>  <Rbt.Executable>
rbdock/0.1.0

>  <Rbt.Library>
librxdock.so/0.1.0

>  <Rbt.Parameter_File>
/root/miniconda3/envs/rdock/share/rxdock-2013.1.1_148c5bd1-0/data/scripts/dock.prm

>  <Rbt.Receptor>
def.prm

>  <SCORE>
-15.0869

>  <SCORE.INTER>
-12.6802

>  <SCORE.INTER.CONST>
1

>  <SCORE.INTER.POLAR>
-0.309032

>  <SCORE.INTER.REPUL>
0

>  <SCORE.INTER.ROT>
5

>  <SCORE.INTER.VDW>
-22.0295

>  <SCORE.INTER.norm>
-0.487699

>  <SCORE.INTRA>
-1.41694

>  <SCORE.INTRA.DIHEDRAL>
-2.63886

>  <SCORE.INTRA.DIHEDRAL.0>
6.89936

>  <SCORE.INTRA.POLAR>
0

>  <SCORE.INTRA.POLAR.0>
0

>  <SCORE.INTRA.REPUL>
0

>  <SCORE.INTRA.REPUL.0>
0

>  <SCORE.INTRA.VDW>
-0.0975065

>  <SCORE.INTRA.VDW.0>
-2.33692

>  <SCORE.INTRA.norm>
-0.0544976

>  <SCORE.RESTR>
0

>  <SCORE.RESTR.CAVITY>
0

>  <SCORE.RESTR.norm>
0

>  <SCORE.SYSTEM>
-0.989789

>  <SCORE.SYSTEM.CONST>
0

>  <SCORE.SYSTEM.DIHEDRAL>
0.15004

>  <SCORE.SYSTEM.POLAR>
-0.00579151

>  <SCORE.SYSTEM.VDW>
-1.04512

>  <SCORE.SYSTEM.norm>
-0.0380688

>  <SCORE.heavy>
26

>  <SCORE.norm>
-0.580265

>  <TITLE>
    44205240_D                                                            

$$$$
Baricitinib.pdb
  RxDock  02242101093D
librxdock.so/0.1.0
 27 30  0  0  0  0  0  0  0  0999 V2000
  -53.3363   -4.7346   16.3733 S   0  0  0  0  0  0
  -52.4240   -4.9324   15.2951 O   0  0  0  0  0  0
  -53.2802   -3.5231   17.1252 O   0  0  0  0  0  0
  -53.0791   -5.9411   17.4131 N   0  0  0  0  0  0
  -50.2412   -6.3863   18.0745 N   0  0  0  0  0  0
  -49.0980   -6.9978   18.4513 N   0  0  0  0  0  0
  -50.9984   -7.4990   21.7095 N   0  0  0  0  0  0
  -46.5126   -3.8260   17.4127 N   0  0  0  0  0  0
  -47.5032   -1.9952   13.9111 N   0  0  0  0  0  0
  -45.9247   -2.2236   15.6857 N   0  0  0  0  0  0
  -51.5947   -6.9226   18.3017 C   0  0  0  0  0  0
  -52.5044   -5.7453   18.7377 C   0  0  0  0  0  0
  -52.4075   -7.1665   17.0024 C   0  0  0  0  0  0
  -51.7710   -8.0971   19.2968 C   0  0  0  0  0  0
  -55.0202   -4.9520   15.7420 C   0  0  0  0  0  0
  -49.8368   -5.2710   17.4210 C   0  0  0  0  0  0
  -48.4937   -5.1428   17.3590 C   0  0  0  0  0  0
  -51.3351   -7.7597   20.6575 C   0  0  0  0  0  0
  -48.0735   -6.2984   18.0457 C   0  0  0  0  0  0
  -55.1595   -6.3380   15.0947 C   0  0  0  0  0  0
  -47.6525   -4.1289   16.7531 C   0  0  0  0  0  0
  -47.9635   -3.4847   15.5629 C   0  0  0  0  0  0
  -47.0780   -2.5489   15.0724 C   0  0  0  0  0  0
  -49.0291   -3.4895   14.6050 C   0  0  0  0  0  0
  -45.7242   -2.8951   16.8303 C   0  0  0  0  0  0
  -48.7139   -2.6055   13.6620 C   0  0  0  0  0  0
  -47.0985   -1.3822   13.4266 H   0  0  0  0  0  0
  1  2  2  0  0  0
  1  3  2  0  0  0
  1  4  1  0  0  0
  1 15  1  0  0  0
  4 12  1  0  0  0
  4 13  1  0  0  0
  5  6  1  0  0  0
  5 11  1  0  0  0
  5 16  1  0  0  0
  6 19  2  0  0  0
  7 18  3  0  0  0
  8 21  1  0  0  0
  8 25  2  0  0  0
  9 23  1  0  0  0
  9 26  1  0  0  0
  9 27  1  0  0  0
 10 23  1  0  0  0
 10 25  1  0  0  0
 11 12  1  0  0  0
 11 13  1  0  0  0
 11 14  1  0  0  0
 14 18  1  0  0  0
 15 20  1  0  0  0
 16 17  2  0  0  0
 17 19  1  0  0  0
 21 17  1  0  0  0
 21 22  1  0  0  0
 22 23  2  0  0  0
 22 24  1  0  0  0
 24 26  2  0  0  0
M  END
>  <CHROM.0>
74.10233667,-61.71041918,-52.67348709

>  <CHROM.1>
111.89649314,56.52336663,138.72538693,60.43705305,144.17352630,-50.42615763
-5.01662684,16.93313846,2.59247155,0.21324950,2.23176713

>  <HEADER>
                                                                          

>  <MASTER>
        0    0    0    0    0    0    0    0   43    0   43    0          

>  <Name>
Baricitinib.pdb

>  <RI>
-6.18188e+08

>  <Rbt.Current_Directory>
/root/miniconda3/envs/rdock/share/rxdock-2013.1.1_148c5bd1-0/data/ligands/prepped_ligands/Baricitinib

>  <Rbt.Executable>
rbdock/0.1.0

>  <Rbt.Library>
librxdock.so/0.1.0

>  <Rbt.Parameter_File>
/root/miniconda3/envs/rdock/share/rxdock-2013.1.1_148c5bd1-0/data/scripts/dock.prm

>  <Rbt.Receptor>
def.prm

>  <SCORE>
-13.2582

>  <SCORE.INTER>
-12.583

>  <SCORE.INTER.CONST>
1

>  <SCORE.INTER.POLAR>
-0.90029

>  <SCORE.INTER.REPUL>
0

>  <SCORE.INTER.ROT>
5

>  <SCORE.INTER.VDW>
-19.922

>  <SCORE.INTER.norm>
-0.483962

>  <SCORE.INTRA>
-0.124658

>  <SCORE.INTRA.DIHEDRAL>
-1.1667

>  <SCORE.INTRA.DIHEDRAL.0>
6.89936

>  <SCORE.INTRA.POLAR>
0

>  <SCORE.INTRA.POLAR.0>
0

>  <SCORE.INTRA.REPUL>
0

>  <SCORE.INTRA.REPUL.0>
0

>  <SCORE.INTRA.VDW>
0.458692

>  <SCORE.INTRA.VDW.0>
-2.33692

>  <SCORE.INTRA.norm>
-0.00479455

>  <SCORE.RESTR>
0.111511

>  <SCORE.RESTR.CAVITY>
0.111511

>  <SCORE.RESTR.norm>
0.00428887

>  <SCORE.SYSTEM>
-0.662019

>  <SCORE.SYSTEM.CONST>
0

>  <SCORE.SYSTEM.DIHEDRAL>
0.598906

>  <SCORE.SYSTEM.POLAR>
-0.0148742

>  <SCORE.SYSTEM.VDW>
-0.9109

>  <SCORE.SYSTEM.norm>
-0.0254623

>  <SCORE.heavy>
26

>  <SCORE.norm>
-0.50993

>  <TITLE>
    44205240_D                                                            

$$$$
Baricitinib.pdb
  RxDock  02242101093D
librxdock.so/0.1.0
 27 30  0  0  0  0  0  0  0  0999 V2000
  -50.2187   -4.5538   16.4403 S   0  0  0  0  0  0
  -49.3363   -3.9084   17.3561 O   0  0  0  0  0  0
  -49.8279   -5.7897   15.8436 O   0  0  0  0  0  0
  -50.4641   -3.5106   15.2342 N   0  0  0  0  0  0
  -48.3250   -1.5086   14.9099 N   0  0  0  0  0  0
  -47.6388   -0.4159   14.5123 N   0  0  0  0  0  0
  -50.0357    1.4426   13.4186 N   0  0  0  0  0  0
  -44.1976   -2.0724   16.5761 N   0  0  0  0  0  0
  -44.6277   -1.2895   20.5506 N   0  0  0  0  0  0
  -43.2011   -2.0367   18.7900 N   0  0  0  0  0  0
  -49.6470   -1.9040   14.3931 C   0  0  0  0  0  0
  -49.5954   -3.4190   14.0680 C   0  0  0  0  0  0
  -50.7253   -2.1010   15.4916 C   0  0  0  0  0  0
  -50.2267   -1.1420   13.1750 C   0  0  0  0  0  0
  -51.8203   -4.7805   17.2560 C   0  0  0  0  0  0
  -47.5627   -2.0590   15.8848 C   0  0  0  0  0  0
  -46.4272   -1.3704   16.1311 C   0  0  0  0  0  0
  -50.1191    0.3157   13.3125 C   0  0  0  0  0  0
  -46.5386   -0.3136   15.2068 C   0  0  0  0  0  0
  -51.6939   -5.8304   18.3701 C   0  0  0  0  0  0
  -45.3556   -1.5935   17.0822 C   0  0  0  0  0  0
  -45.4717   -1.3397   18.4424 C   0  0  0  0  0  0
  -44.3787   -1.5737   19.2494 C   0  0  0  0  0  0
  -46.4791   -0.8748   19.3492 C   0  0  0  0  0  0
  -43.1973   -2.2577   17.4662 C   0  0  0  0  0  0
  -45.9384   -0.8628   20.5648 C   0  0  0  0  0  0
  -44.0772   -1.3632   21.2330 H   0  0  0  0  0  0
  1  2  2  0  0  0
  1  3  2  0  0  0
  1  4  1  0  0  0
  1 15  1  0  0  0
  4 12  1  0  0  0
  4 13  1  0  0  0
  5  6  1  0  0  0
  5 11  1  0  0  0
  5 16  1  0  0  0
  6 19  2  0  0  0
  7 18  3  0  0  0
  8 21  1  0  0  0
  8 25  2  0  0  0
  9 23  1  0  0  0
  9 26  1  0  0  0
  9 27  1  0  0  0
 10 23  1  0  0  0
 10 25  1  0  0  0
 11 12  1  0  0  0
 11 13  1  0  0  0
 11 14  1  0  0  0
 14 18  1  0  0  0
 15 20  1  0  0  0
 16 17  2  0  0  0
 17 19  1  0  0  0
 21 17  1  0  0  0
 21 22  1  0  0  0
 22 23  2  0  0  0
 22 24  1  0  0  0
 24 26  2  0  0  0
M  END
>  <CHROM.0>
-49.72513199,-179.55787610,178.39527326

>  <CHROM.1>
87.30539853,-69.40736883,133.43163892,-47.10302625,105.40794353,-47.99395022
-2.29956344,16.50646646,2.96472641,-0.53510432,-0.82684177

>  <HEADER>
                                                                          

>  <MASTER>
        0    0    0    0    0    0    0    0   43    0   43    0          

>  <Name>
Baricitinib.pdb

>  <RI>
-6.18188e+08

>  <Rbt.Current_Directory>
/root/miniconda3/envs/rdock/share/rxdock-2013.1.1_148c5bd1-0/data/ligands/prepped_ligands/Baricitinib

>  <Rbt.Executable>
rbdock/0.1.0

>  <Rbt.Library>
librxdock.so/0.1.0

>  <Rbt.Parameter_File>
/root/miniconda3/envs/rdock/share/rxdock-2013.1.1_148c5bd1-0/data/scripts/dock.prm

>  <Rbt.Receptor>
def.prm

>  <SCORE>
-10.4506

>  <SCORE.INTER>
-8.31351

>  <SCORE.INTER.CONST>
1

>  <SCORE.INTER.POLAR>
0

>  <SCORE.INTER.REPUL>
0.073524

>  <SCORE.INTER.ROT>
5

>  <SCORE.INTER.VDW>
-19.0811

>  <SCORE.INTER.norm>
-0.31975

>  <SCORE.INTRA>
-1.20348

>  <SCORE.INTRA.DIHEDRAL>
-1.7836

>  <SCORE.INTRA.DIHEDRAL.0>
6.89936

>  <SCORE.INTRA.POLAR>
0

>  <SCORE.INTRA.POLAR.0>
0

>  <SCORE.INTRA.REPUL>
0

>  <SCORE.INTRA.REPUL.0>
0

>  <SCORE.INTRA.VDW>
-0.311679

>  <SCORE.INTRA.VDW.0>
-2.33692

>  <SCORE.INTRA.norm>
-0.0462877

>  <SCORE.RESTR>
0

>  <SCORE.RESTR.CAVITY>
0

>  <SCORE.RESTR.norm>
0

>  <SCORE.SYSTEM>
-0.933577

>  <SCORE.SYSTEM.CONST>
0

>  <SCORE.SYSTEM.DIHEDRAL>
0.255845

>  <SCORE.SYSTEM.VDW>
-1.0615

>  <SCORE.SYSTEM.norm>
-0.0359068

>  <SCORE.heavy>
26

>  <SCORE.norm>
-0.401945

>  <TITLE>
    44205240_D                                                            

$$$$
Baricitinib.pdb
  RxDock  02242101093D
librxdock.so/0.1.0
 27 30  0  0  0  0  0  0  0  0999 V2000
  -49.2778   -5.8515   18.1523 S   0  0  0  0  0  0
  -50.1467   -5.7619   19.2795 O   0  0  0  0  0  0
  -47.9909   -5.2374   18.2090 O   0  0  0  0  0  0
  -50.0641   -5.1731   16.9175 N   0  0  0  0  0  0
  -48.6263   -2.9343   15.6488 N   0  0  0  0  0  0
  -47.8523   -2.6906   14.5697 N   0  0  0  0  0  0
  -51.0052   -0.7891   13.9617 N   0  0  0  0  0  0
  -46.2177    0.4408   17.1909 N   0  0  0  0  0  0
  -42.8539   -1.1725   18.8269 N   0  0  0  0  0  0
  -44.2048    0.7684   18.5087 N   0  0  0  0  0  0
  -49.8994   -3.6756   15.6189 C   0  0  0  0  0  0
  -49.5661   -5.1880   15.5483 C   0  0  0  0  0  0
  -50.5853   -3.8158   17.0038 C   0  0  0  0  0  0
  -50.9340   -3.3310   14.5181 C   0  0  0  0  0  0
  -49.0713   -7.6009   17.7297 C   0  0  0  0  0  0
  -48.0018   -2.3027   16.6712 C   0  0  0  0  0  0
  -46.8709   -1.6657   16.2977 C   0  0  0  0  0  0
  -50.9742   -1.8973   14.2045 C   0  0  0  0  0  0
  -46.8321   -1.9559   14.9201 C   0  0  0  0  0  0
  -48.1347   -8.2751   18.7435 C   0  0  0  0  0  0
  -45.9220   -0.8706   17.0528 C   0  0  0  0  0  0
  -44.7657   -1.3898   17.6200 C   0  0  0  0  0  0
  -43.9458   -0.5407   18.3322 C   0  0  0  0  0  0
  -44.0975   -2.6555   17.6880 C   0  0  0  0  0  0
  -45.3388    1.1703   17.9138 C   0  0  0  0  0  0
  -42.9892   -2.4769   18.4021 C   0  0  0  0  0  0
  -42.2038   -0.8269   19.3087 H   0  0  0  0  0  0
  1  2  2  0  0  0
  1  3  2  0  0  0
  1  4  1  0  0  0
  1 15  1  0  0  0
  4 12  1  0  0  0
  4 13  1  0  0  0
  5  6  1  0  0  0
  5 11  1  0  0  0
  5 16  1  0  0  0
  6 19  2  0  0  0
  7 18  3  0  0  0
  8 21  1  0  0  0
  8 25  2  0  0  0
  9 23  1  0  0  0
  9 26  1  0  0  0
  9 27  1  0  0  0
 10 23  1  0  0  0
 10 25  1  0  0  0
 11 12  1  0  0  0
 11 13  1  0  0  0
 11 14  1  0  0  0
 14 18  1  0  0  0
 15 20  1  0  0  0
 16 17  2  0  0  0
 17 19  1  0  0  0
 21 17  1  0  0  0
 21 22  1  0  0  0
 22 23  2  0  0  0
 22 24  1  0  0  0
 24 26  2  0  0  0
M  END
>  <CHROM.0>
178.54700259,-59.64285763,-53.72174750

>  <CHROM.1>
-173.51133136,-75.11545936,78.35650598,-36.67438751,-86.02102669,-47.67182631
-3.11133765,17.00647193,-2.59509593,-0.52287840,-0.50915651

>  <HEADER>
                                                                          

>  <MASTER>
        0    0    0    0    0    0    0    0   43    0   43    0          

>  <Name>
Baricitinib.pdb

>  <RI>
-6.18188e+08

>  <Rbt.Current_Directory>
/root/miniconda3/envs/rdock/share/rxdock-2013.1.1_148c5bd1-0/data/ligands/prepped_ligands/Baricitinib

>  <Rbt.Executable>
rbdock/0.1.0

>  <Rbt.Library>
librxdock.so/0.1.0

>  <Rbt.Parameter_File>
/root/miniconda3/envs/rdock/share/rxdock-2013.1.1_148c5bd1-0/data/scripts/dock.prm

>  <Rbt.Receptor>
def.prm

>  <SCORE>
-13.6494

>  <SCORE.INTER>
-11.3338

>  <SCORE.INTER.CONST>
1

>  <SCORE.INTER.POLAR>
-1.09332

>  <SCORE.INTER.REPUL>
0.0885258

>  <SCORE.INTER.ROT>
5

>  <SCORE.INTER.VDW>
-18.4591

>  <SCORE.INTER.norm>
-0.435914

>  <SCORE.INTRA>
-1.33246

>  <SCORE.INTRA.DIHEDRAL>
-1.0547

>  <SCORE.INTRA.DIHEDRAL.0>
6.89936

>  <SCORE.INTRA.POLAR>
0

>  <SCORE.INTRA.POLAR.0>
0

>  <SCORE.INTRA.REPUL>
0

>  <SCORE.INTRA.REPUL.0>
0

>  <SCORE.INTRA.VDW>
-0.805105

>  <SCORE.INTRA.VDW.0>
-2.33692

>  <SCORE.INTRA.norm>
-0.0512483

>  <SCORE.RESTR>
0

>  <SCORE.RESTR.CAVITY>
0

>  <SCORE.RESTR.norm>
0

>  <SCORE.SYSTEM>
-0.983137

>  <SCORE.SYSTEM.CONST>
0

>  <SCORE.SYSTEM.DIHEDRAL>
0.0984586

>  <SCORE.SYSTEM.POLAR>
-0.0134447

>  <SCORE.SYSTEM.VDW>
-0.986654

>  <SCORE.SYSTEM.norm>
-0.0378129

>  <SCORE.heavy>
26

>  <SCORE.norm>
-0.524975

>  <TITLE>
    44205240_D                                                            

$$$$
Baricitinib.pdb
  RxDock  02242101093D
librxdock.so/0.1.0
 27 30  0  0  0  0  0  0  0  0999 V2000
  -45.0922   -2.0898   17.0717 S   0  0  0  0  0  0
  -43.8066   -1.8786   16.4916 O   0  0  0  0  0  0
  -45.4082   -3.3645   17.6299 O   0  0  0  0  0  0
  -46.1691   -1.8127   15.9027 N   0  0  0  0  0  0
  -48.3560   -3.7852   15.7777 N   0  0  0  0  0  0
  -47.7082   -4.4969   16.7247 N   0  0  0  0  0  0
  -49.1964   -3.7554   12.0879 N   0  0  0  0  0  0
  -50.6103   -7.4329   17.4244 N   0  0  0  0  0  0
  -54.3752   -6.4939   16.1842 N   0  0  0  0  0  0
  -52.9572   -8.0454   17.3136 N   0  0  0  0  0  0
  -47.8063   -2.6013   15.0941 C   0  0  0  0  0  0
  -47.5691   -1.5038   16.1630 C   0  0  0  0  0  0
  -46.2946   -2.7062   14.7594 C   0  0  0  0  0  0
  -48.5976   -1.9939   13.9085 C   0  0  0  0  0  0
  -45.3646   -0.8174   18.3320 C   0  0  0  0  0  0
  -49.5766   -4.3648   15.6851 C   0  0  0  0  0  0
  -49.7407   -5.4075   16.5278 C   0  0  0  0  0  0
  -48.9351   -2.9874   12.8817 C   0  0  0  0  0  0
  -48.4905   -5.4392   17.1754 C   0  0  0  0  0  0
  -45.1389    0.5752   17.7242 C   0  0  0  0  0  0
  -50.8719   -6.2838   16.7628 C   0  0  0  0  0  0
  -52.1658   -5.9940   16.3504 C   0  0  0  0  0  0
  -53.1661   -6.8955   16.6456 C   0  0  0  0  0  0
  -52.8390   -4.9505   15.6356 C   0  0  0  0  0  0
  -51.6738   -8.2339   17.6577 C   0  0  0  0  0  0
  -54.1240   -5.2880   15.5653 C   0  0  0  0  0  0
  -55.1464   -6.9106   16.2604 H   0  0  0  0  0  0
  1  2  2  0  0  0
  1  3  2  0  0  0
  1  4  1  0  0  0
  1 15  1  0  0  0
  4 12  1  0  0  0
  4 13  1  0  0  0
  5  6  1  0  0  0
  5 11  1  0  0  0
  5 16  1  0  0  0
  6 19  2  0  0  0
  7 18  3  0  0  0
  8 21  1  0  0  0
  8 25  2  0  0  0
  9 23  1  0  0  0
  9 26  1  0  0  0
  9 27  1  0  0  0
 10 23  1  0  0  0
 10 25  1  0  0  0
 11 12  1  0  0  0
 11 13  1  0  0  0
 11 14  1  0  0  0
 14 18  1  0  0  0
 15 20  1  0  0  0
 16 17  2  0  0  0
 17 19  1  0  0  0
 21 17  1  0  0  0
 21 22  1  0  0  0
 22 23  2  0  0  0
 22 24  1  0  0  0
 24 26  2  0  0  0
M  END
>  <CHROM.0>
-162.41706141,62.54976829,55.69307080

>  <CHROM.1>
-159.78358103,53.24004336,-62.74694095,-52.66712551,163.84867530,-48.77306358
-3.99080704,16.20630603,-0.30779783,0.53542670,2.17073352

>  <HEADER>
                                                                          

>  <MASTER>
        0    0    0    0    0    0    0    0   43    0   43    0          

>  <Name>
Baricitinib.pdb

>  <RI>
-6.18188e+08

>  <Rbt.Current_Directory>
/root/miniconda3/envs/rdock/share/rxdock-2013.1.1_148c5bd1-0/data/ligands/prepped_ligands/Baricitinib

>  <Rbt.Executable>
rbdock/0.1.0

>  <Rbt.Library>
librxdock.so/0.1.0

>  <Rbt.Parameter_File>
/root/miniconda3/envs/rdock/share/rxdock-2013.1.1_148c5bd1-0/data/scripts/dock.prm

>  <Rbt.Receptor>
def.prm

>  <SCORE>
-16.5613

>  <SCORE.INTER>
-14.5939

>  <SCORE.INTER.CONST>
1

>  <SCORE.INTER.POLAR>
-0.43945

>  <SCORE.INTER.REPUL>
0

>  <SCORE.INTER.ROT>
5

>  <SCORE.INTER.VDW>
-23.4997

>  <SCORE.INTER.norm>
-0.561303

>  <SCORE.INTRA>
-1.43352

>  <SCORE.INTRA.DIHEDRAL>
-2.45742

>  <SCORE.INTRA.DIHEDRAL.0>
6.89936

>  <SCORE.INTRA.POLAR>
0

>  <SCORE.INTRA.POLAR.0>
0

>  <SCORE.INTRA.REPUL>
0

>  <SCORE.INTRA.REPUL.0>
0

>  <SCORE.INTRA.VDW>
-0.204816

>  <SCORE.INTRA.VDW.0>
-2.33692

>  <SCORE.INTRA.norm>
-0.0551355

>  <SCORE.RESTR>
0

>  <SCORE.RESTR.CAVITY>
0

>  <SCORE.RESTR.norm>
0

>  <SCORE.SYSTEM>
-0.533954

>  <SCORE.SYSTEM.CONST>
0

>  <SCORE.SYSTEM.DIHEDRAL>
0.780461

>  <SCORE.SYSTEM.VDW>
-0.924185

>  <SCORE.SYSTEM.norm>
-0.0205367

>  <SCORE.heavy>
26

>  <SCORE.norm>
-0.636975

>  <TITLE>
    44205240_D                                                            

$$$$
Baricitinib.pdb
  RxDock  02242101103D
librxdock.so/0.1.0
 27 30  0  0  0  0  0  0  0  0999 V2000
  -46.1756   -2.2836   17.2586 S   0  0  0  0  0  0
  -45.1453   -3.2110   16.9239 O   0  0  0  0  0  0
  -47.3269   -2.7409   17.9669 O   0  0  0  0  0  0
  -46.7011   -1.6655   15.8640 N   0  0  0  0  0  0
  -49.5226   -2.2669   15.2590 N   0  0  0  0  0  0
  -50.6773   -1.6242   15.5360 N   0  0  0  0  0  0
  -50.3911    0.8390   13.3186 N   0  0  0  0  0  0
  -50.9907   -5.8962   17.0773 N   0  0  0  0  0  0
  -54.8846   -6.6039   16.1128 N   0  0  0  0  0  0
  -52.9124   -7.3741   17.2129 N   0  0  0  0  0  0
  -48.3170   -1.6263   14.7049 C   0  0  0  0  0  0
  -47.7547   -0.6625   15.7813 C   0  0  0  0  0  0
  -47.0498   -2.5215   14.7384 C   0  0  0  0  0  0
  -48.4297   -0.8721   13.3561 C   0  0  0  0  0  0
  -45.4309   -0.9124   18.1789 C   0  0  0  0  0  0
  -49.7760   -3.5676   15.5390 C   0  0  0  0  0  0
  -51.0347   -3.7868   15.9769 C   0  0  0  0  0  0
  -49.5361    0.0928   13.3349 C   0  0  0  0  0  0
  -51.5678   -2.4836   15.9502 C   0  0  0  0  0  0
  -44.2733   -0.3089   17.3693 C   0  0  0  0  0  0
  -51.7175   -5.0051   16.3672 C   0  0  0  0  0  0
  -53.0421   -5.2772   16.0516 C   0  0  0  0  0  0
  -53.5915   -6.4625   16.4918 C   0  0  0  0  0  0
  -54.1085   -4.6468   15.3316 C   0  0  0  0  0  0
  -51.6408   -7.0195   17.4549 C   0  0  0  0  0  0
  -55.1604   -5.4588   15.3966 C   0  0  0  0  0  0
  -55.4255   -7.2766   16.2835 H   0  0  0  0  0  0
  1  2  2  0  0  0
  1  3  2  0  0  0
  1  4  1  0  0  0
  1 15  1  0  0  0
  4 12  1  0  0  0
  4 13  1  0  0  0
  5  6  1  0  0  0
  5 11  1  0  0  0
  5 16  1  0  0  0
  6 19  2  0  0  0
  7 18  3  0  0  0
  8 21  1  0  0  0
  8 25  2  0  0  0
  9 23  1  0  0  0
  9 26  1  0  0  0
  9 27  1  0  0  0
 10 23  1  0  0  0
 10 25  1  0  0  0
 11 12  1  0  0  0
 11 13  1  0  0  0
 11 14  1  0  0  0
 14 18  1  0  0  0
 15 20  1  0  0  0
 16 17  2  0  0  0
 17 19  1  0  0  0
 21 17  1  0  0  0
 21 22  1  0  0  0
 22 23  2  0  0  0
 22 24  1  0  0  0
 24 26  2  0  0  0
M  END
>  <CHROM.0>
60.79568207,61.87160312,-177.71549453

>  <CHROM.1>
-179.47824685,54.42994313,67.24656712,50.82496123,39.73487168,-49.59907548
-3.13180494,16.04484514,-0.43456359,0.37660344,2.50413074

>  <HEADER>
                                                                          

>  <MASTER>
        0    0    0    0    0    0    0    0   43    0   43    0          

>  <Name>
Baricitinib.pdb

>  <RI>
-6.18188e+08

>  <Rbt.Current_Directory>
/root/miniconda3/envs/rdock/share/rxdock-2013.1.1_148c5bd1-0/data/ligands/prepped_ligands/Baricitinib

>  <Rbt.Executable>
rbdock/0.1.0

>  <Rbt.Library>
librxdock.so/0.1.0

>  <Rbt.Parameter_File>
/root/miniconda3/envs/rdock/share/rxdock-2013.1.1_148c5bd1-0/data/scripts/dock.prm

>  <Rbt.Receptor>
def.prm

>  <SCORE>
-14.2716

>  <SCORE.INTER>
-11.4259

>  <SCORE.INTER.CONST>
1

>  <SCORE.INTER.POLAR>
-0.172473

>  <SCORE.INTER.REPUL>
0

>  <SCORE.INTER.ROT>
5

>  <SCORE.INTER.VDW>
-21.2395

>  <SCORE.INTER.norm>
-0.439459

>  <SCORE.INTRA>
-1.83268

>  <SCORE.INTRA.DIHEDRAL>
-2.84264

>  <SCORE.INTRA.DIHEDRAL.0>
6.89936

>  <SCORE.INTRA.POLAR>
0

>  <SCORE.INTRA.POLAR.0>
0

>  <SCORE.INTRA.REPUL>
0

>  <SCORE.INTRA.REPUL.0>
0

>  <SCORE.INTRA.VDW>
-0.411363

>  <SCORE.INTRA.VDW.0>
-2.33692

>  <SCORE.INTRA.norm>
-0.0704877

>  <SCORE.RESTR>
0

>  <SCORE.RESTR.CAVITY>
0

>  <SCORE.RESTR.norm>
0

>  <SCORE.SYSTEM>
-1.01296

>  <SCORE.SYSTEM.CONST>
0

>  <SCORE.SYSTEM.DIHEDRAL>
0.0294495

>  <SCORE.SYSTEM.POLAR>
-0.00723128

>  <SCORE.SYSTEM.VDW>
-1.0031

>  <SCORE.SYSTEM.norm>
-0.0389599

>  <SCORE.heavy>
26

>  <SCORE.norm>
-0.548907

>  <TITLE>
    44205240_D                                                            

$$$$
Baricitinib.pdb
  RxDock  02242101103D
librxdock.so/0.1.0
 27 30  0  0  0  0  0  0  0  0999 V2000
  -47.7787    0.3219   18.6205 S   0  0  0  0  0  0
  -48.6461    1.3798   19.0233 O   0  0  0  0  0  0
  -46.3784    0.4293   18.8731 O   0  0  0  0  0  0
  -47.9545    0.1736   17.0236 N   0  0  0  0  0  0
  -48.5610   -2.5661   16.1207 N   0  0  0  0  0  0
  -47.6714   -3.3504   16.7661 N   0  0  0  0  0  0
  -50.7493   -1.4605   13.1513 N   0  0  0  0  0  0
  -50.0852   -6.6891   17.4682 N   0  0  0  0  0  0
  -54.0411   -6.2243   16.6141 N   0  0  0  0  0  0
  -52.3200   -7.6385   17.4692 N   0  0  0  0  0  0
  -48.2793   -1.2062   15.6283 C   0  0  0  0  0  0
  -49.2053   -0.2243   16.3910 C   0  0  0  0  0  0
  -46.9936   -0.5701   16.2204 C   0  0  0  0  0  0
  -48.3871   -0.9296   14.1075 C   0  0  0  0  0  0
  -48.3862   -1.2215   19.3487 C   0  0  0  0  0  0
  -49.7103   -3.2826   16.1123 C   0  0  0  0  0  0
  -49.5993   -4.4821   16.7230 C   0  0  0  0  0  0
  -49.7193   -1.2292   13.5682 C   0  0  0  0  0  0
  -48.2502   -4.4632   17.1267 C   0  0  0  0  0  0
  -48.3830   -1.1118   20.8809 C   0  0  0  0  0  0
  -50.5672   -5.5378   16.9498 C   0  0  0  0  0  0
  -51.9207   -5.4117   16.6665 C   0  0  0  0  0  0
  -52.7507   -6.4778   16.9407 C   0  0  0  0  0  0
  -52.7979   -4.4220   16.1150 C   0  0  0  0  0  0
  -50.9973   -7.6603   17.6959 C   0  0  0  0  0  0
  -54.0220   -4.9431   16.1059 C   0  0  0  0  0  0
  -54.7344   -6.7586   16.7040 H   0  0  0  0  0  0
  1  2  2  0  0  0
  1  3  2  0  0  0
  1  4  1  0  0  0
  1 15  1  0  0  0
  4 12  1  0  0  0
  4 13  1  0  0  0
  5  6  1  0  0  0
  5 11  1  0  0  0
  5 16  1  0  0  0
  6 19  2  0  0  0
  7 18  3  0  0  0
  8 21  1  0  0  0
  8 25  2  0  0  0
  9 23  1  0  0  0
  9 26  1  0  0  0
  9 27  1  0  0  0
 10 23  1  0  0  0
 10 25  1  0  0  0
 11 12  1  0  0  0
 11 13  1  0  0  0
 11 14  1  0  0  0
 14 18  1  0  0  0
 15 20  1  0  0  0
 16 17  2  0  0  0
 17 19  1  0  0  0
 21 17  1  0  0  0
 21 22  1  0  0  0
 22 23  2  0  0  0
 22 24  1  0  0  0
 24 26  2  0  0  0
M  END
>  <CHROM.0>
-175.71916535,-62.44718377,-178.11960821

>  <CHROM.1>
-64.03539778,-60.45926811,-116.73248718,58.33432880,172.68883966,-49.62486009
-2.77860608,16.98225488,-0.26793462,0.93409690,2.07373447

>  <HEADER>
                                                                          

>  <MASTER>
        0    0    0    0    0    0    0    0   43    0   43    0          

>  <Name>
Baricitinib.pdb

>  <RI>
-6.18188e+08

>  <Rbt.Current_Directory>
/root/miniconda3/envs/rdock/share/rxdock-2013.1.1_148c5bd1-0/data/ligands/prepped_ligands/Baricitinib

>  <Rbt.Executable>
rbdock/0.1.0

>  <Rbt.Library>
librxdock.so/0.1.0

>  <Rbt.Parameter_File>
/root/miniconda3/envs/rdock/share/rxdock-2013.1.1_148c5bd1-0/data/scripts/dock.prm

>  <Rbt.Receptor>
def.prm

>  <SCORE>
-13.0994

>  <SCORE.INTER>
-10.4496

>  <SCORE.INTER.CONST>
1

>  <SCORE.INTER.POLAR>
-0.770979

>  <SCORE.INTER.REPUL>
0

>  <SCORE.INTER.ROT>
5

>  <SCORE.INTER.VDW>
-18.2283

>  <SCORE.INTER.norm>
-0.401908

>  <SCORE.INTRA>
-1.57809

>  <SCORE.INTRA.DIHEDRAL>
-2.79175

>  <SCORE.INTRA.DIHEDRAL.0>
6.89936

>  <SCORE.INTRA.POLAR>
0

>  <SCORE.INTRA.POLAR.0>
0

>  <SCORE.INTRA.REPUL>
0

>  <SCORE.INTRA.REPUL.0>
0

>  <SCORE.INTRA.VDW>
-0.182211

>  <SCORE.INTRA.VDW.0>
-2.33692

>  <SCORE.INTRA.norm>
-0.0606956

>  <SCORE.RESTR>
0

>  <SCORE.RESTR.CAVITY>
0

>  <SCORE.RESTR.norm>
0

>  <SCORE.SYSTEM>
-1.07172

>  <SCORE.SYSTEM.CONST>
0

>  <SCORE.SYSTEM.DIHEDRAL>
0.0787869

>  <SCORE.SYSTEM.POLAR>
-0.00637628

>  <SCORE.SYSTEM.VDW>
-1.08943

>  <SCORE.SYSTEM.norm>
-0.0412199

>  <SCORE.heavy>
26

>  <SCORE.norm>
-0.503823

>  <TITLE>
    44205240_D                                                            

$$$$
Baricitinib.pdb
  RxDock  02242101103D
librxdock.so/0.1.0
 27 30  0  0  0  0  0  0  0  0999 V2000
  -53.6916   -4.5956   16.5140 S   0  0  0  0  0  0
  -53.1153   -3.7019   15.5637 O   0  0  0  0  0  0
  -54.0152   -4.1173   17.8190 O   0  0  0  0  0  0
  -52.6331   -5.7978   16.7072 N   0  0  0  0  0  0
  -49.9397   -4.9211   17.5232 N   0  0  0  0  0  0
  -49.9636   -4.3453   18.7441 N   0  0  0  0  0  0
  -49.2716   -8.0907   19.6508 N   0  0  0  0  0  0
  -46.5105   -1.9844   18.1253 N   0  0  0  0  0  0
  -46.4807   -0.0848   14.5219 N   0  0  0  0  0  0
  -45.4270   -0.3988   16.6395 N   0  0  0  0  0  0
  -50.7178   -6.1127   17.1414 C   0  0  0  0  0  0
  -52.0171   -6.1219   17.9872 C   0  0  0  0  0  0
  -51.4985   -5.9612   15.8087 C   0  0  0  0  0  0
  -50.0407   -7.5033   17.2343 C   0  0  0  0  0  0
  -55.1744   -5.3312   15.7781 C   0  0  0  0  0  0
  -49.0267   -4.2070   16.8226 C   0  0  0  0  0  0
  -48.4648   -3.2076   17.5365 C   0  0  0  0  0  0
  -49.6068   -7.8344   18.5972 C   0  0  0  0  0  0
  -49.1161   -3.3533   18.7766 C   0  0  0  0  0  0
  -54.7879   -6.1581   14.5426 C   0  0  0  0  0  0
  -47.4526   -2.2295   17.1878 C   0  0  0  0  0  0
  -47.4167   -1.5631   15.9701 C   0  0  0  0  0  0
  -46.3950   -0.6658   15.7429 C   0  0  0  0  0  0
  -48.1970   -1.5116   14.7695 C   0  0  0  0  0  0
  -45.5589   -1.0870   17.7842 C   0  0  0  0  0  0
  -47.6105   -0.6365   13.9569 C   0  0  0  0  0  0
  -45.9384    0.5123   14.1701 H   0  0  0  0  0  0
  1  2  2  0  0  0
  1  3  2  0  0  0
  1  4  1  0  0  0
  1 15  1  0  0  0
  4 12  1  0  0  0
  4 13  1  0  0  0
  5  6  1  0  0  0
  5 11  1  0  0  0
  5 16  1  0  0  0
  6 19  2  0  0  0
  7 18  3  0  0  0
  8 21  1  0  0  0
  8 25  2  0  0  0
  9 23  1  0  0  0
  9 26  1  0  0  0
  9 27  1  0  0  0
 10 23  1  0  0  0
 10 25  1  0  0  0
 11 12  1  0  0  0
 11 13  1  0  0  0
 11 14  1  0  0  0
 14 18  1  0  0  0
 15 20  1  0  0  0
 16 17  2  0  0  0
 17 19  1  0  0  0
 21 17  1  0  0  0
 21 22  1  0  0  0
 22 23  2  0  0  0
 22 24  1  0  0  0
 24 26  2  0  0  0
M  END
>  <CHROM.0>
64.03138478,-58.67027552,-159.12851696

>  <CHROM.1>
119.86141114,62.87855383,29.62617585,60.38044836,-137.82055905,-50.07326311
-3.96133151,16.79457136,2.62233531,0.35591389,2.50134780

>  <HEADER>
                                                                          

>  <MASTER>
        0    0    0    0    0    0    0    0   43    0   43    0          

>  <Name>
Baricitinib.pdb

>  <RI>
-6.18188e+08

>  <Rbt.Current_Directory>
/root/miniconda3/envs/rdock/share/rxdock-2013.1.1_148c5bd1-0/data/ligands/prepped_ligands/Baricitinib

>  <Rbt.Executable>
rbdock/0.1.0

>  <Rbt.Library>
librxdock.so/0.1.0

>  <Rbt.Parameter_File>
/root/miniconda3/envs/rdock/share/rxdock-2013.1.1_148c5bd1-0/data/scripts/dock.prm

>  <Rbt.Receptor>
def.prm

>  <SCORE>
-10.9915

>  <SCORE.INTER>
-11.0832

>  <SCORE.INTER.CONST>
1

>  <SCORE.INTER.POLAR>
-0.885389

>  <SCORE.INTER.REPUL>
0

>  <SCORE.INTER.ROT>
5

>  <SCORE.INTER.VDW>
-18.4729

>  <SCORE.INTER.norm>
-0.426276

>  <SCORE.INTRA>
0.486256

>  <SCORE.INTRA.DIHEDRAL>
-0.580228

>  <SCORE.INTRA.DIHEDRAL.0>
6.89936

>  <SCORE.INTRA.POLAR>
0

>  <SCORE.INTRA.POLAR.0>
0

>  <SCORE.INTRA.REPUL>
0

>  <SCORE.INTRA.REPUL.0>
0

>  <SCORE.INTRA.VDW>
0.776371

>  <SCORE.INTRA.VDW.0>
-2.33692

>  <SCORE.INTRA.norm>
0.0187022

>  <SCORE.RESTR>
0

>  <SCORE.RESTR.CAVITY>
0

>  <SCORE.RESTR.norm>
0

>  <SCORE.SYSTEM>
-0.394602

>  <SCORE.SYSTEM.CONST>
0

>  <SCORE.SYSTEM.DIHEDRAL>
1.00407

>  <SCORE.SYSTEM.POLAR>
-0.0184021

>  <SCORE.SYSTEM.VDW>
-0.834068

>  <SCORE.SYSTEM.norm>
-0.015177

>  <SCORE.heavy>
26

>  <SCORE.norm>
-0.422751

>  <TITLE>
    44205240_D                                                            

$$$$
