Baricitinib.pdb
  RxDock  02242112483D
librxdock.so/0.1.0
 27 30  0  0  0  0  0  0  0  0999 V2000
  -45.2044   -0.8638   18.8511 S   0  0  0  0  0  0
  -46.2954   -1.3882   19.6051 O   0  0  0  0  0  0
  -44.9818    0.5455   18.8282 O   0  0  0  0  0  0
  -45.4459   -1.3226   17.3233 N   0  0  0  0  0  0
  -47.7930   -3.0636   16.9377 N   0  0  0  0  0  0
  -48.0833   -2.8567   18.2400 N   0  0  0  0  0  0
  -48.8628   -2.5774   13.5090 N   0  0  0  0  0  0
  -52.0757   -4.2471   17.1430 N   0  0  0  0  0  0
  -52.0741   -8.2951   17.5990 N   0  0  0  0  0  0
  -53.3444   -6.3168   17.1919 N   0  0  0  0  0  0
  -46.6490   -2.4659   16.2271 C   0  0  0  0  0  0
  -46.6264   -0.9507   16.5545 C   0  0  0  0  0  0
  -45.2781   -2.7098   16.9122 C   0  0  0  0  0  0
  -46.5458   -2.6562   14.6929 C   0  0  0  0  0  0
  -43.6858   -1.6854   19.3993 C   0  0  0  0  0  0
  -48.7974   -3.8491   16.4810 C   0  0  0  0  0  0
  -49.7150   -4.1501   17.4252 C   0  0  0  0  0  0
  -47.8526   -2.6120   14.0253 C   0  0  0  0  0  0
  -49.1926   -3.4731   18.5443 C   0  0  0  0  0  0
  -42.4899   -1.1667   18.5868 C   0  0  0  0  0  0
  -50.9334   -4.9341   17.3654 C   0  0  0  0  0  0
  -50.9664   -6.3137   17.5197 C   0  0  0  0  0  0
  -52.1828   -6.9556   17.4256 C   0  0  0  0  0  0
  -50.0355   -7.3710   17.7817 C   0  0  0  0  0  0
  -53.2039   -4.9878   17.0679 C   0  0  0  0  0  0
  -50.7295   -8.5056   17.8181 C   0  0  0  0  0  0
  -52.7175   -8.8949   17.5788 H   0  0  0  0  0  0
  1  2  2  0  0  0
  1  3  2  0  0  0
  1  4  1  0  0  0
  1 15  1  0  0  0
  4 12  1  0  0  0
  4 13  1  0  0  0
  5  6  1  0  0  0
  5 11  1  0  0  0
  5 16  1  0  0  0
  6 19  2  0  0  0
  7 18  3  0  0  0
  8 21  1  0  0  0
  8 25  2  0  0  0
  9 23  1  0  0  0
  9 26  1  0  0  0
  9 27  1  0  0  0
 10 23  1  0  0  0
 10 25  1  0  0  0
 11 12  1  0  0  0
 11 13  1  0  0  0
 11 14  1  0  0  0
 14 18  1  0  0  0
 15 20  1  0  0  0
 16 17  2  0  0  0
 17 19  1  0  0  0
 21 17  1  0  0  0
 21 22  1  0  0  0
 22 23  2  0  0  0
 22 24  1  0  0  0
 24 26  2  0  0  0
M  END
>  <CHROM.0>
171.62750157,-178.51229197,-179.92026900

>  <CHROM.1>
59.98659938,178.80090004,-47.87426617,37.10918154,-94.52993485,-48.17265850
-3.44508899,17.38934621,-0.14707960,0.65351197,1.96891068

>  <HEADER>
                                                                          

>  <MASTER>
        0    0    0    0    0    0    0    0   43    0   43    0          

>  <Name>
Baricitinib.pdb

>  <RI>
-2.34331e+08

>  <Rbt.Current_Directory>
/root/miniconda3/envs/rdock/share/rxdock-2013.1.1_148c5bd1-0/data/ligands/prepped_ligands/Baricitinib

>  <Rbt.Executable>
rbdock/0.1.0

>  <Rbt.Library>
librxdock.so/0.1.0

>  <Rbt.Parameter_File>
/root/miniconda3/envs/rdock/share/rxdock-2013.1.1_148c5bd1-0/data/scripts/dock.prm

>  <Rbt.Receptor>
def.prm

>  <SCORE>
-12.7605

>  <SCORE.INTER>
-10.8628

>  <SCORE.INTER.CONST>
1

>  <SCORE.INTER.POLAR>
-0.576186

>  <SCORE.INTER.REPUL>
0.0252941

>  <SCORE.INTER.ROT>
5

>  <SCORE.INTER.VDW>
-19.4303

>  <SCORE.INTER.norm>
-0.417802

>  <SCORE.INTRA>
-0.930895

>  <SCORE.INTRA.DIHEDRAL>
-1.85694

>  <SCORE.INTRA.DIHEDRAL.0>
6.89936

>  <SCORE.INTRA.POLAR>
0

>  <SCORE.INTRA.POLAR.0>
0

>  <SCORE.INTRA.REPUL>
0

>  <SCORE.INTRA.REPUL.0>
0

>  <SCORE.INTRA.VDW>
-0.00242472

>  <SCORE.INTRA.VDW.0>
-2.33692

>  <SCORE.INTRA.norm>
-0.0358037

>  <SCORE.RESTR>
0

>  <SCORE.RESTR.CAVITY>
0

>  <SCORE.RESTR.norm>
0

>  <SCORE.SYSTEM>
-0.966807

>  <SCORE.SYSTEM.CONST>
0

>  <SCORE.SYSTEM.DIHEDRAL>
0.187261

>  <SCORE.SYSTEM.POLAR>
-0.00219116

>  <SCORE.SYSTEM.VDW>
-1.05299

>  <SCORE.SYSTEM.norm>
-0.0371849

>  <SCORE.heavy>
26

>  <SCORE.norm>
-0.49079

>  <TITLE>
    44205240_D                                                            

$$$$
Baricitinib.pdb
  RxDock  02242112483D
librxdock.so/0.1.0
 27 30  0  0  0  0  0  0  0  0999 V2000
  -45.6408   -1.9466   17.1190 S   0  0  0  0  0  0
  -45.9678   -3.2467   17.6056 O   0  0  0  0  0  0
  -45.0227   -1.0054   17.9955 O   0  0  0  0  0  0
  -47.0269   -1.2842   16.6260 N   0  0  0  0  0  0
  -49.2204   -3.2141   16.2352 N   0  0  0  0  0  0
  -48.3259   -4.2121   16.3990 N   0  0  0  0  0  0
  -51.0050   -1.3807   13.3284 N   0  0  0  0  0  0
  -51.0387   -7.2525   17.4025 N   0  0  0  0  0  0
  -54.7600   -6.8289   15.8006 N   0  0  0  0  0  0
  -53.2691   -8.1632   17.1006 N   0  0  0  0  0  0
  -48.8718   -1.7907   16.0820 C   0  0  0  0  0  0
  -48.2499   -1.3083   17.4177 C   0  0  0  0  0  0
  -47.5585   -1.5398   15.2943 C   0  0  0  0  0  0
  -49.9789   -0.7972   15.6485 C   0  0  0  0  0  0
  -44.6084   -2.1340   15.6423 C   0  0  0  0  0  0
  -50.4300   -3.8184   16.3148 C   0  0  0  0  0  0
  -50.3516   -5.1503   16.5247 C   0  0  0  0  0  0
  -50.5575   -1.1262   14.3399 C   0  0  0  0  0  0
  -48.9570   -5.3414   16.5712 C   0  0  0  0  0  0
  -44.3090   -0.7543   15.0370 C   0  0  0  0  0  0
  -51.3803   -6.1597   16.6845 C   0  0  0  0  0  0
  -52.6563   -6.0464   16.1488 C   0  0  0  0  0  0
  -53.5582   -7.0629   16.3810 C   0  0  0  0  0  0
  -53.3862   -5.1121   15.3441 C   0  0  0  0  0  0
  -52.0098   -8.1787   17.5643 C   0  0  0  0  0  0
  -54.6063   -5.6131   15.1694 C   0  0  0  0  0  0
  -55.4763   -7.3396   15.8202 H   0  0  0  0  0  0
  1  2  2  0  0  0
  1  3  2  0  0  0
  1  4  1  0  0  0
  1 15  1  0  0  0
  4 12  1  0  0  0
  4 13  1  0  0  0
  5  6  1  0  0  0
  5 11  1  0  0  0
  5 16  1  0  0  0
  6 19  2  0  0  0
  7 18  3  0  0  0
  8 21  1  0  0  0
  8 25  2  0  0  0
  9 23  1  0  0  0
  9 26  1  0  0  0
  9 27  1  0  0  0
 10 23  1  0  0  0
 10 25  1  0  0  0
 11 12  1  0  0  0
 11 13  1  0  0  0
 11 14  1  0  0  0
 14 18  1  0  0  0
 15 20  1  0  0  0
 16 17  2  0  0  0
 17 19  1  0  0  0
 21 17  1  0  0  0
 21 22  1  0  0  0
 22 23  2  0  0  0
 22 24  1  0  0  0
 24 26  2  0  0  0
M  END
>  <CHROM.0>
66.62286948,65.72283663,-63.22038717

>  <CHROM.1>
46.99950870,176.42792350,-66.28244185,-60.14499368,-153.58191617,-49.40559275
-3.71367972,16.28606777,-0.52644230,0.34620872,2.64920362

>  <HEADER>
                                                                          

>  <MASTER>
        0    0    0    0    0    0    0    0   43    0   43    0          

>  <Name>
Baricitinib.pdb

>  <RI>
-2.34331e+08

>  <Rbt.Current_Directory>
/root/miniconda3/envs/rdock/share/rxdock-2013.1.1_148c5bd1-0/data/ligands/prepped_ligands/Baricitinib

>  <Rbt.Executable>
rbdock/0.1.0

>  <Rbt.Library>
librxdock.so/0.1.0

>  <Rbt.Parameter_File>
/root/miniconda3/envs/rdock/share/rxdock-2013.1.1_148c5bd1-0/data/scripts/dock.prm

>  <Rbt.Receptor>
def.prm

>  <SCORE>
-12.7894

>  <SCORE.INTER>
-11.0687

>  <SCORE.INTER.CONST>
1

>  <SCORE.INTER.POLAR>
-0.383475

>  <SCORE.INTER.REPUL>
0.00282342

>  <SCORE.INTER.ROT>
5

>  <SCORE.INTER.VDW>
-20.179

>  <SCORE.INTER.norm>
-0.425719

>  <SCORE.INTRA>
-0.798251

>  <SCORE.INTRA.DIHEDRAL>
-2.14585

>  <SCORE.INTRA.DIHEDRAL.0>
6.89936

>  <SCORE.INTRA.POLAR>
0

>  <SCORE.INTRA.POLAR.0>
0

>  <SCORE.INTRA.REPUL>
0

>  <SCORE.INTRA.REPUL.0>
0

>  <SCORE.INTRA.VDW>
0.274675

>  <SCORE.INTRA.VDW.0>
-2.33692

>  <SCORE.INTRA.norm>
-0.030702

>  <SCORE.RESTR>
0

>  <SCORE.RESTR.CAVITY>
0

>  <SCORE.RESTR.norm>
0

>  <SCORE.SYSTEM>
-0.922415

>  <SCORE.SYSTEM.CONST>
0

>  <SCORE.SYSTEM.DIHEDRAL>
0.291098

>  <SCORE.SYSTEM.VDW>
-1.06796

>  <SCORE.SYSTEM.norm>
-0.0354775

>  <SCORE.heavy>
26

>  <SCORE.norm>
-0.491899

>  <TITLE>
    44205240_D                                                            

$$$$
Baricitinib.pdb
  RxDock  02242112483D
librxdock.so/0.1.0
 27 30  0  0  0  0  0  0  0  0999 V2000
  -51.0980   -4.5614   15.0274 S   0  0  0  0  0  0
  -50.5195   -4.3735   16.3173 O   0  0  0  0  0  0
  -50.6624   -5.6516   14.2162 O   0  0  0  0  0  0
  -50.7997   -3.2121   14.1947 N   0  0  0  0  0  0
  -49.2609   -1.1855   15.6827 N   0  0  0  0  0  0
  -49.8577   -0.7643   16.8182 N   0  0  0  0  0  0
  -47.4569    0.5824   12.9819 N   0  0  0  0  0  0
  -46.5942   -0.9320   19.4192 N   0  0  0  0  0  0
  -43.0272   -1.9485   17.7348 N   0  0  0  0  0  0
  -44.2236   -1.3658   19.7153 N   0  0  0  0  0  0
  -49.9574   -1.4226   14.4061 C   0  0  0  0  0  0
  -49.4567   -2.7749   13.8366 C   0  0  0  0  0  0
  -51.4112   -1.9425   14.5629 C   0  0  0  0  0  0
  -49.8698   -0.3413   13.2999 C   0  0  0  0  0  0
  -52.8968   -4.6588   15.2186 C   0  0  0  0  0  0
  -47.9659   -1.3832   16.0263 C   0  0  0  0  0  0
  -47.7079   -1.1128   17.3242 C   0  0  0  0  0  0
  -48.5089    0.1798   13.1207 C   0  0  0  0  0  0
  -48.9795   -0.7172   17.7824 C   0  0  0  0  0  0
  -53.2680   -5.9097   16.0293 C   0  0  0  0  0  0
  -46.4855   -1.2009   18.0993 C   0  0  0  0  0  0
  -45.2545   -1.5416   17.5546 C   0  0  0  0  0  0
  -44.1624   -1.6111   18.3931 C   0  0  0  0  0  0
  -44.7217   -1.8629   16.2638 C   0  0  0  0  0  0
  -45.4542   -1.0369   20.1379 C   0  0  0  0  0  0
  -43.4207   -2.0922   16.4215 C   0  0  0  0  0  0
  -42.2200   -2.0503   18.0701 H   0  0  0  0  0  0
  1  2  2  0  0  0
  1  3  2  0  0  0
  1  4  1  0  0  0
  1 15  1  0  0  0
  4 12  1  0  0  0
  4 13  1  0  0  0
  5  6  1  0  0  0
  5 11  1  0  0  0
  5 16  1  0  0  0
  6 19  2  0  0  0
  7 18  3  0  0  0
  8 21  1  0  0  0
  8 25  2  0  0  0
  9 23  1  0  0  0
  9 26  1  0  0  0
  9 27  1  0  0  0
 10 23  1  0  0  0
 10 25  1  0  0  0
 11 12  1  0  0  0
 11 13  1  0  0  0
 11 14  1  0  0  0
 14 18  1  0  0  0
 15 20  1  0  0  0
 16 17  2  0  0  0
 17 19  1  0  0  0
 21 17  1  0  0  0
 21 22  1  0  0  0
 22 23  2  0  0  0
 22 24  1  0  0  0
 24 26  2  0  0  0
M  END
>  <CHROM.0>
-54.80486183,66.37549385,-179.64114990

>  <CHROM.1>
64.49527216,-64.90058796,-134.61331822,44.68539589,-175.85469871,-48.41900615
-2.23295939,16.09530754,3.02474494,-0.55467791,-0.88481646

>  <HEADER>
                                                                          

>  <MASTER>
        0    0    0    0    0    0    0    0   43    0   43    0          

>  <Name>
Baricitinib.pdb

>  <RI>
-2.34331e+08

>  <Rbt.Current_Directory>
/root/miniconda3/envs/rdock/share/rxdock-2013.1.1_148c5bd1-0/data/ligands/prepped_ligands/Baricitinib

>  <Rbt.Executable>
rbdock/0.1.0

>  <Rbt.Library>
librxdock.so/0.1.0

>  <Rbt.Parameter_File>
/root/miniconda3/envs/rdock/share/rxdock-2013.1.1_148c5bd1-0/data/scripts/dock.prm

>  <Rbt.Receptor>
def.prm

>  <SCORE>
-15.9677

>  <SCORE.INTER>
-13.619

>  <SCORE.INTER.CONST>
1

>  <SCORE.INTER.POLAR>
-0.9985

>  <SCORE.INTER.REPUL>
0.106576

>  <SCORE.INTER.ROT>
5

>  <SCORE.INTER.VDW>
-21.157

>  <SCORE.INTER.norm>
-0.523809

>  <SCORE.INTRA>
-1.36214

>  <SCORE.INTRA.DIHEDRAL>
-2.82478

>  <SCORE.INTRA.DIHEDRAL.0>
6.89936

>  <SCORE.INTRA.POLAR>
0

>  <SCORE.INTRA.POLAR.0>
0

>  <SCORE.INTRA.REPUL>
0

>  <SCORE.INTRA.REPUL.0>
0

>  <SCORE.INTRA.VDW>
0.0502478

>  <SCORE.INTRA.VDW.0>
-2.33692

>  <SCORE.INTRA.norm>
-0.05239

>  <SCORE.RESTR>
0

>  <SCORE.RESTR.CAVITY>
0

>  <SCORE.RESTR.norm>
0

>  <SCORE.SYSTEM>
-0.986535

>  <SCORE.SYSTEM.CONST>
0

>  <SCORE.SYSTEM.DIHEDRAL>
0.261343

>  <SCORE.SYSTEM.POLAR>
-0.00288474

>  <SCORE.SYSTEM.VDW>
-1.1074

>  <SCORE.SYSTEM.norm>
-0.0379437

>  <SCORE.heavy>
26

>  <SCORE.norm>
-0.614143

>  <TITLE>
    44205240_D                                                            

$$$$
Baricitinib.pdb
  RxDock  02242112483D
librxdock.so/0.1.0
 27 30  0  0  0  0  0  0  0  0999 V2000
  -53.7044   -5.9929   16.1694 S   0  0  0  0  0  0
  -52.5271   -5.6673   15.4334 O   0  0  0  0  0  0
  -54.6609   -4.9715   16.4487 O   0  0  0  0  0  0
  -53.2062   -6.5670   17.5925 N   0  0  0  0  0  0
  -50.2844   -6.4894   17.9745 N   0  0  0  0  0  0
  -49.3454   -7.3103   17.4574 N   0  0  0  0  0  0
  -49.9672   -9.6478   20.1893 N   0  0  0  0  0  0
  -46.7683   -3.7999   17.3214 N   0  0  0  0  0  0
  -47.6372   -1.8060   13.8770 N   0  0  0  0  0  0
  -46.1682   -2.0575   15.7404 N   0  0  0  0  0  0
  -51.5366   -6.9394   18.6074 C   0  0  0  0  0  0
  -52.5304   -5.7495   18.5914 C   0  0  0  0  0  0
  -52.4396   -7.8019   17.6861 C   0  0  0  0  0  0
  -51.4750   -7.5313   20.0380 C   0  0  0  0  0  0
  -54.5414   -7.3620   15.3288 C   0  0  0  0  0  0
  -49.8331   -5.2398   17.7112 C   0  0  0  0  0  0
  -48.6559   -5.2229   17.0493 C   0  0  0  0  0  0
  -50.6247   -8.7251   20.1233 C   0  0  0  0  0  0
  -48.3947   -6.6002   16.9142 C   0  0  0  0  0  0
  -55.2227   -6.8504   14.0506 C   0  0  0  0  0  0
  -47.8411   -4.1248   16.5665 C   0  0  0  0  0  0
  -48.1122   -3.4238   15.3989 C   0  0  0  0  0  0
  -47.2560   -2.4084   15.0293 C   0  0  0  0  0  0
  -49.1098   -3.4280   14.3704 C   0  0  0  0  0  0
  -46.0025   -2.7891   16.8532 C   0  0  0  0  0  0
  -48.7885   -2.4679   13.5073 C   0  0  0  0  0  0
  -47.2402   -1.1405   13.4602 H   0  0  0  0  0  0
  1  2  2  0  0  0
  1  3  2  0  0  0
  1  4  1  0  0  0
  1 15  1  0  0  0
  4 12  1  0  0  0
  4 13  1  0  0  0
  5  6  1  0  0  0
  5 11  1  0  0  0
  5 16  1  0  0  0
  6 19  2  0  0  0
  7 18  3  0  0  0
  8 21  1  0  0  0
  8 25  2  0  0  0
  9 23  1  0  0  0
  9 26  1  0  0  0
  9 27  1  0  0  0
 10 23  1  0  0  0
 10 25  1  0  0  0
 11 12  1  0  0  0
 11 13  1  0  0  0
 11 14  1  0  0  0
 14 18  1  0  0  0
 15 20  1  0  0  0
 16 17  2  0  0  0
 17 19  1  0  0  0
 21 17  1  0  0  0
 21 22  1  0  0  0
 22 23  2  0  0  0
 22 24  1  0  0  0
 24 26  2  0  0  0
M  END
>  <CHROM.0>
74.24724747,176.47557064,158.10779389

>  <CHROM.1>
67.15383167,-74.00451773,-159.78046521,-59.99377174,101.00786071,-50.52210927
-5.46437381,16.71599229,2.55481782,0.32208321,2.29563503

>  <HEADER>
                                                                          

>  <MASTER>
        0    0    0    0    0    0    0    0   43    0   43    0          

>  <Name>
Baricitinib.pdb

>  <RI>
-2.34331e+08

>  <Rbt.Current_Directory>
/root/miniconda3/envs/rdock/share/rxdock-2013.1.1_148c5bd1-0/data/ligands/prepped_ligands/Baricitinib

>  <Rbt.Executable>
rbdock/0.1.0

>  <Rbt.Library>
librxdock.so/0.1.0

>  <Rbt.Parameter_File>
/root/miniconda3/envs/rdock/share/rxdock-2013.1.1_148c5bd1-0/data/scripts/dock.prm

>  <Rbt.Receptor>
def.prm

>  <SCORE>
-16.5513

>  <SCORE.INTER>
-15.0415

>  <SCORE.INTER.CONST>
1

>  <SCORE.INTER.POLAR>
-1.38445

>  <SCORE.INTER.REPUL>
0.0501968

>  <SCORE.INTER.ROT>
5

>  <SCORE.INTER.VDW>
-20.9854

>  <SCORE.INTER.norm>
-0.57852

>  <SCORE.INTRA>
-1.42203

>  <SCORE.INTRA.DIHEDRAL>
-2.9818

>  <SCORE.INTRA.DIHEDRAL.0>
6.89936

>  <SCORE.INTRA.POLAR>
0

>  <SCORE.INTRA.POLAR.0>
0

>  <SCORE.INTRA.REPUL>
0

>  <SCORE.INTRA.REPUL.0>
0

>  <SCORE.INTRA.VDW>
0.0688654

>  <SCORE.INTRA.VDW.0>
-2.33692

>  <SCORE.INTRA.norm>
-0.0546936

>  <SCORE.RESTR>
0

>  <SCORE.RESTR.CAVITY>
0

>  <SCORE.RESTR.norm>
0

>  <SCORE.SYSTEM>
-0.0877908

>  <SCORE.SYSTEM.CONST>
0

>  <SCORE.SYSTEM.DIHEDRAL>
1.6025

>  <SCORE.SYSTEM.VDW>
-0.889039

>  <SCORE.SYSTEM.norm>
-0.00337657

>  <SCORE.heavy>
26

>  <SCORE.norm>
-0.63659

>  <TITLE>
    44205240_D                                                            

$$$$
Baricitinib.pdb
  RxDock  02242112483D
librxdock.so/0.1.0
 27 30  0  0  0  0  0  0  0  0999 V2000
  -52.7559   -4.6990   15.7631 S   0  0  0  0  0  0
  -51.8985   -4.0767   14.8085 O   0  0  0  0  0  0
  -53.7301   -3.9125   16.4477 O   0  0  0  0  0  0
  -51.7938   -5.3352   16.8912 N   0  0  0  0  0  0
  -49.0147   -4.3562   16.8058 N   0  0  0  0  0  0
  -49.4376   -3.2614   16.1382 N   0  0  0  0  0  0
  -47.0192   -7.1911   18.1905 N   0  0  0  0  0  0
  -45.5091   -2.7389   14.4642 N   0  0  0  0  0  0
  -42.9008   -1.6494   17.3974 N   0  0  0  0  0  0
  -43.3064   -1.9095   15.0605 N   0  0  0  0  0  0
  -49.8985   -5.3134   17.4942 C   0  0  0  0  0  0
  -51.1684   -4.5468   17.9450 C   0  0  0  0  0  0
  -50.7035   -6.2345   16.5392 C   0  0  0  0  0  0
  -49.3346   -6.1139   18.6949 C   0  0  0  0  0  0
  -53.5908   -6.0902   14.9574 C   0  0  0  0  0  0
  -47.6632   -4.3016   16.7371 C   0  0  0  0  0  0
  -47.2032   -3.2256   16.0628 C   0  0  0  0  0  0
  -48.0288   -6.7216   18.4103 C   0  0  0  0  0  0
  -48.4070   -2.5901   15.7016 C   0  0  0  0  0  0
  -54.3928   -6.8892   15.9956 C   0  0  0  0  0  0
  -45.8548   -2.7797   15.7701 C   0  0  0  0  0  0
  -44.9416   -2.4047   16.7467 C   0  0  0  0  0  0
  -43.6919   -1.9804   16.3483 C   0  0  0  0  0  0
  -44.8949   -2.3269   18.1767 C   0  0  0  0  0  0
  -44.2577   -2.3023   14.1991 C   0  0  0  0  0  0
  -43.6856   -1.8813   18.5067 C   0  0  0  0  0  0
  -42.0719   -1.3551   17.3752 H   0  0  0  0  0  0
  1  2  2  0  0  0
  1  3  2  0  0  0
  1  4  1  0  0  0
  1 15  1  0  0  0
  4 12  1  0  0  0
  4 13  1  0  0  0
  5  6  1  0  0  0
  5 11  1  0  0  0
  5 16  1  0  0  0
  6 19  2  0  0  0
  7 18  3  0  0  0
  8 21  1  0  0  0
  8 25  2  0  0  0
  9 23  1  0  0  0
  9 26  1  0  0  0
  9 27  1  0  0  0
 10 23  1  0  0  0
 10 25  1  0  0  0
 11 12  1  0  0  0
 11 13  1  0  0  0
 11 14  1  0  0  0
 14 18  1  0  0  0
 15 20  1  0  0  0
 16 17  2  0  0  0
 17 19  1  0  0  0
 21 17  1  0  0  0
 21 22  1  0  0  0
 22 23  2  0  0  0
 22 24  1  0  0  0
 24 26  2  0  0  0
M  END
>  <CHROM.0>
-169.13493493,-59.10055478,179.39553579

>  <CHROM.1>
78.17218501,173.18317645,-28.42178479,-48.04902431,116.58330735,-48.61929573
-4.08895220,16.48918681,2.93053422,0.28213548,2.31259488

>  <HEADER>
                                                                          

>  <MASTER>
        0    0    0    0    0    0    0    0   43    0   43    0          

>  <Name>
Baricitinib.pdb

>  <RI>
-2.34331e+08

>  <Rbt.Current_Directory>
/root/miniconda3/envs/rdock/share/rxdock-2013.1.1_148c5bd1-0/data/ligands/prepped_ligands/Baricitinib

>  <Rbt.Executable>
rbdock/0.1.0

>  <Rbt.Library>
librxdock.so/0.1.0

>  <Rbt.Parameter_File>
/root/miniconda3/envs/rdock/share/rxdock-2013.1.1_148c5bd1-0/data/scripts/dock.prm

>  <Rbt.Receptor>
def.prm

>  <SCORE>
-12.0811

>  <SCORE.INTER>
-9.69298

>  <SCORE.INTER.CONST>
1

>  <SCORE.INTER.POLAR>
0

>  <SCORE.INTER.REPUL>
0.314272

>  <SCORE.INTER.ROT>
5

>  <SCORE.INTER.VDW>
-21.6643

>  <SCORE.INTER.norm>
-0.372807

>  <SCORE.INTRA>
-1.49967

>  <SCORE.INTRA.DIHEDRAL>
-2.46961

>  <SCORE.INTRA.DIHEDRAL.0>
6.89936

>  <SCORE.INTRA.POLAR>
0

>  <SCORE.INTRA.POLAR.0>
0

>  <SCORE.INTRA.REPUL>
0

>  <SCORE.INTRA.REPUL.0>
0

>  <SCORE.INTRA.VDW>
-0.264869

>  <SCORE.INTRA.VDW.0>
-2.33692

>  <SCORE.INTRA.norm>
-0.0576797

>  <SCORE.RESTR>
0

>  <SCORE.RESTR.CAVITY>
0

>  <SCORE.RESTR.norm>
0

>  <SCORE.SYSTEM>
-0.888455

>  <SCORE.SYSTEM.CONST>
0

>  <SCORE.SYSTEM.DIHEDRAL>
0.281473

>  <SCORE.SYSTEM.POLAR>
-0.000441954

>  <SCORE.SYSTEM.VDW>
-1.02769

>  <SCORE.SYSTEM.norm>
-0.0341714

>  <SCORE.heavy>
26

>  <SCORE.norm>
-0.464658

>  <TITLE>
    44205240_D                                                            

$$$$
Baricitinib.pdb
  RxDock  02242112483D
librxdock.so/0.1.0
 27 30  0  0  0  0  0  0  0  0999 V2000
  -53.8942   -5.6071   16.4121 S   0  0  0  0  0  0
  -55.0255   -4.7388   16.4203 O   0  0  0  0  0  0
  -54.0937   -7.0169   16.3171 O   0  0  0  0  0  0
  -53.1062   -5.3397   17.7943 N   0  0  0  0  0  0
  -50.3339   -4.4005   17.4463 N   0  0  0  0  0  0
  -49.7149   -5.2498   16.5987 N   0  0  0  0  0  0
  -49.6687   -2.4308   20.4626 N   0  0  0  0  0  0
  -47.0173   -2.0404   15.5329 N   0  0  0  0  0  0
  -48.9891    0.5542   13.0886 N   0  0  0  0  0  0
  -46.9066   -0.1437   14.0209 N   0  0  0  0  0  0
  -51.3144   -4.8021   18.4702 C   0  0  0  0  0  0
  -52.6281   -4.0244   18.1998 C   0  0  0  0  0  0
  -51.9855   -6.1755   18.2027 C   0  0  0  0  0  0
  -50.9325   -4.6512   19.9642 C   0  0  0  0  0  0
  -52.7842   -5.0839   15.0795 C   0  0  0  0  0  0
  -49.8979   -3.1709   17.0824 C   0  0  0  0  0  0
  -49.0354   -3.1933   16.0433 C   0  0  0  0  0  0
  -50.2196   -3.3990   20.2452 C   0  0  0  0  0  0
  -48.9605   -4.5740   15.7756 C   0  0  0  0  0  0
  -52.6460   -3.5541   15.0865 C   0  0  0  0  0  0
  -48.3521   -2.1258   15.3389 C   0  0  0  0  0  0
  -48.9956   -1.2240   14.5017 C   0  0  0  0  0  0
  -48.2392   -0.2599   13.8701 C   0  0  0  0  0  0
  -50.3331   -0.9593   14.0611 C   0  0  0  0  0  0
  -46.3852   -1.0557   14.8563 C   0  0  0  0  0  0
  -50.2767    0.0855   13.2394 C   0  0  0  0  0  0
  -48.7157    1.2312   12.5976 H   0  0  0  0  0  0
  1  2  2  0  0  0
  1  3  2  0  0  0
  1  4  1  0  0  0
  1 15  1  0  0  0
  4 12  1  0  0  0
  4 13  1  0  0  0
  5  6  1  0  0  0
  5 11  1  0  0  0
  5 16  1  0  0  0
  6 19  2  0  0  0
  7 18  3  0  0  0
  8 21  1  0  0  0
  8 25  2  0  0  0
  9 23  1  0  0  0
  9 26  1  0  0  0
  9 27  1  0  0  0
 10 23  1  0  0  0
 10 25  1  0  0  0
 11 12  1  0  0  0
 11 13  1  0  0  0
 11 14  1  0  0  0
 14 18  1  0  0  0
 15 20  1  0  0  0
 16 17  2  0  0  0
 17 19  1  0  0  0
 21 17  1  0  0  0
 21 22  1  0  0  0
 22 23  2  0  0  0
 22 24  1  0  0  0
 24 26  2  0  0  0
M  END
>  <CHROM.0>
59.88623309,63.08002418,152.52419697

>  <CHROM.1>
-56.29286694,44.04579325,-122.48062165,41.24638389,109.68929006,-50.71037480
-3.42300544,16.31583612,2.44025558,0.51977984,2.03407786

>  <HEADER>
                                                                          

>  <MASTER>
        0    0    0    0    0    0    0    0   43    0   43    0          

>  <Name>
Baricitinib.pdb

>  <RI>
-2.34331e+08

>  <Rbt.Current_Directory>
/root/miniconda3/envs/rdock/share/rxdock-2013.1.1_148c5bd1-0/data/ligands/prepped_ligands/Baricitinib

>  <Rbt.Executable>
rbdock/0.1.0

>  <Rbt.Library>
librxdock.so/0.1.0

>  <Rbt.Parameter_File>
/root/miniconda3/envs/rdock/share/rxdock-2013.1.1_148c5bd1-0/data/scripts/dock.prm

>  <Rbt.Receptor>
def.prm

>  <SCORE>
-13.8135

>  <SCORE.INTER>
-12.0655

>  <SCORE.INTER.CONST>
1

>  <SCORE.INTER.POLAR>
-1.0467

>  <SCORE.INTER.REPUL>
0.0343512

>  <SCORE.INTER.ROT>
5

>  <SCORE.INTER.VDW>
-19.0785

>  <SCORE.INTER.norm>
-0.464059

>  <SCORE.INTRA>
-1.70271

>  <SCORE.INTRA.DIHEDRAL>
-2.21888

>  <SCORE.INTRA.DIHEDRAL.0>
6.89936

>  <SCORE.INTRA.POLAR>
0

>  <SCORE.INTRA.POLAR.0>
0

>  <SCORE.INTRA.REPUL>
0

>  <SCORE.INTRA.REPUL.0>
0

>  <SCORE.INTRA.VDW>
-0.593268

>  <SCORE.INTRA.VDW.0>
-2.33692

>  <SCORE.INTRA.norm>
-0.0654888

>  <SCORE.RESTR>
0

>  <SCORE.RESTR.CAVITY>
0

>  <SCORE.RESTR.norm>
0

>  <SCORE.SYSTEM>
-0.0452513

>  <SCORE.SYSTEM.CONST>
0

>  <SCORE.SYSTEM.DIHEDRAL>
1.62517

>  <SCORE.SYSTEM.VDW>
-0.857834

>  <SCORE.SYSTEM.norm>
-0.00174044

>  <SCORE.heavy>
26

>  <SCORE.norm>
-0.531289

>  <TITLE>
    44205240_D                                                            

$$$$
Baricitinib.pdb
  RxDock  02242112483D
librxdock.so/0.1.0
 27 30  0  0  0  0  0  0  0  0999 V2000
  -49.5515   -6.1184   18.8823 S   0  0  0  0  0  0
  -50.5509   -6.0161   19.8946 O   0  0  0  0  0  0
  -48.2070   -5.7484   19.1852 O   0  0  0  0  0  0
  -50.0343   -5.1697   17.6699 N   0  0  0  0  0  0
  -48.0983   -3.0753   16.9255 N   0  0  0  0  0  0
  -46.9566   -3.7530   16.6804 N   0  0  0  0  0  0
  -50.6246   -0.3744   15.8111 N   0  0  0  0  0  0
  -46.0790    0.5620   17.9445 N   0  0  0  0  0  0
  -42.2003    0.0024   19.0567 N   0  0  0  0  0  0
  -44.0113    1.5296   18.7715 N   0  0  0  0  0  0
  -49.4522   -3.5766   16.6310 C   0  0  0  0  0  0
  -49.3494   -5.1039   16.3855 C   0  0  0  0  0  0
  -50.3469   -3.7635   17.8851 C   0  0  0  0  0  0
  -50.2487   -2.9276   15.4711 C   0  0  0  0  0  0
  -49.5602   -7.8130   18.2422 C   0  0  0  0  0  0
  -47.6915   -1.8779   17.4104 C   0  0  0  0  0  0
  -46.3482   -1.7568   17.4832 C   0  0  0  0  0  0
  -50.4608   -1.4876   15.6630 C   0  0  0  0  0  0
  -45.9307   -3.0092   16.9925 C   0  0  0  0  0  0
  -48.3255   -8.0425   17.3577 C   0  0  0  0  0  0
  -45.5048   -0.6612   17.9201 C   0  0  0  0  0  0
  -44.1792   -0.8187   18.3024 C   0  0  0  0  0  0
  -43.4791    0.2943   18.7170 C   0  0  0  0  0  0
  -43.2250   -1.8835   18.3964 C   0  0  0  0  0  0
  -45.2920    1.5741   18.3728 C   0  0  0  0  0  0
  -42.0881   -1.3544   18.8407 C   0  0  0  0  0  0
  -41.5805    0.5553   19.3472 H   0  0  0  0  0  0
  1  2  2  0  0  0
  1  3  2  0  0  0
  1  4  1  0  0  0
  1 15  1  0  0  0
  4 12  1  0  0  0
  4 13  1  0  0  0
  5  6  1  0  0  0
  5 11  1  0  0  0
  5 16  1  0  0  0
  6 19  2  0  0  0
  7 18  3  0  0  0
  8 21  1  0  0  0
  8 25  2  0  0  0
  9 23  1  0  0  0
  9 26  1  0  0  0
  9 27  1  0  0  0
 10 23  1  0  0  0
 10 25  1  0  0  0
 11 12  1  0  0  0
 11 13  1  0  0  0
 11 14  1  0  0  0
 14 18  1  0  0  0
 15 20  1  0  0  0
 16 17  2  0  0  0
 17 19  1  0  0  0
 21 17  1  0  0  0
 21 22  1  0  0  0
 22 23  2  0  0  0
 22 24  1  0  0  0
 24 26  2  0  0  0
M  END
>  <CHROM.0>
62.01956142,-63.62022384,-63.07142557

>  <CHROM.1>
-173.60037555,-168.81311189,15.55172504,-59.32597477,-19.50664399,-47.39506561
-2.96936864,17.81096065,-2.43128429,-0.36790440,-0.30587646

>  <HEADER>
                                                                          

>  <MASTER>
        0    0    0    0    0    0    0    0   43    0   43    0          

>  <Name>
Baricitinib.pdb

>  <RI>
-2.34331e+08

>  <Rbt.Current_Directory>
/root/miniconda3/envs/rdock/share/rxdock-2013.1.1_148c5bd1-0/data/ligands/prepped_ligands/Baricitinib

>  <Rbt.Executable>
rbdock/0.1.0

>  <Rbt.Library>
librxdock.so/0.1.0

>  <Rbt.Parameter_File>
/root/miniconda3/envs/rdock/share/rxdock-2013.1.1_148c5bd1-0/data/scripts/dock.prm

>  <Rbt.Receptor>
def.prm

>  <SCORE>
-11.0908

>  <SCORE.INTER>
-9.30939

>  <SCORE.INTER.CONST>
1

>  <SCORE.INTER.POLAR>
-0.769674

>  <SCORE.INTER.REPUL>
0

>  <SCORE.INTER.ROT>
5

>  <SCORE.INTER.VDW>
-17.0925

>  <SCORE.INTER.norm>
-0.358053

>  <SCORE.INTRA>
-0.730517

>  <SCORE.INTRA.DIHEDRAL>
-2.29506

>  <SCORE.INTRA.DIHEDRAL.0>
6.89936

>  <SCORE.INTRA.POLAR>
0

>  <SCORE.INTRA.POLAR.0>
0

>  <SCORE.INTRA.REPUL>
0

>  <SCORE.INTRA.REPUL.0>
0

>  <SCORE.INTRA.VDW>
0.417015

>  <SCORE.INTRA.VDW.0>
-2.33692

>  <SCORE.INTRA.norm>
-0.0280968

>  <SCORE.RESTR>
0

>  <SCORE.RESTR.CAVITY>
0

>  <SCORE.RESTR.norm>
0

>  <SCORE.SYSTEM>
-1.05093

>  <SCORE.SYSTEM.CONST>
0

>  <SCORE.SYSTEM.DIHEDRAL>
0.0989663

>  <SCORE.SYSTEM.VDW>
-1.10041

>  <SCORE.SYSTEM.norm>
-0.0404203

>  <SCORE.heavy>
26

>  <SCORE.norm>
-0.42657

>  <TITLE>
    44205240_D                                                            

$$$$
Baricitinib.pdb
  RxDock  02242112483D
librxdock.so/0.1.0
 27 30  0  0  0  0  0  0  0  0999 V2000
  -45.3504   -2.0563   17.4717 S   0  0  0  0  0  0
  -43.9978   -2.2188   17.0498 O   0  0  0  0  0  0
  -46.0961   -3.1990   17.8895 O   0  0  0  0  0  0
  -46.1423   -1.4143   16.2212 N   0  0  0  0  0  0
  -48.3476   -3.0817   15.1986 N   0  0  0  0  0  0
  -49.3596   -3.5464   14.4351 N   0  0  0  0  0  0
  -50.6719   -0.4847   13.8935 N   0  0  0  0  0  0
  -48.0069   -7.0176   16.9828 N   0  0  0  0  0  0
  -51.5815   -8.2324   18.5126 N   0  0  0  0  0  0
  -49.2435   -8.6512   18.2857 N   0  0  0  0  0  0
  -47.6091   -1.8323   14.9444 C   0  0  0  0  0  0
  -47.5489   -1.0379   16.2744 C   0  0  0  0  0  0
  -46.0678   -2.0050   14.8919 C   0  0  0  0  0  0
  -48.1025   -0.8946   13.8139 C   0  0  0  0  0  0
  -45.3900   -0.8185   18.7938 C   0  0  0  0  0  0
  -48.1630   -4.0341   16.1438 C   0  0  0  0  0  0
  -49.0037   -5.0838   16.0191 C   0  0  0  0  0  0
  -49.5517   -0.6636   13.8588 C   0  0  0  0  0  0
  -49.7537   -4.7048   14.8888 C   0  0  0  0  0  0
  -44.7724    0.4966   18.2953 C   0  0  0  0  0  0
  -49.1383   -6.3037   16.7914 C   0  0  0  0  0  0
  -50.3422   -6.7462   17.3233 C   0  0  0  0  0  0
  -50.3461   -7.9137   18.0565 C   0  0  0  0  0  0
  -51.7117   -6.3249   17.3347 C   0  0  0  0  0  0
  -48.1374   -8.1422   17.7213 C   0  0  0  0  0  0
  -52.3934   -7.2234   18.0405 C   0  0  0  0  0  0
  -51.8134   -8.9283   18.9986 H   0  0  0  0  0  0
  1  2  2  0  0  0
  1  3  2  0  0  0
  1  4  1  0  0  0
  1 15  1  0  0  0
  4 12  1  0  0  0
  4 13  1  0  0  0
  5  6  1  0  0  0
  5 11  1  0  0  0
  5 16  1  0  0  0
  6 19  2  0  0  0
  7 18  3  0  0  0
  8 21  1  0  0  0
  8 25  2  0  0  0
  9 23  1  0  0  0
  9 26  1  0  0  0
  9 27  1  0  0  0
 10 23  1  0  0  0
 10 25  1  0  0  0
 11 12  1  0  0  0
 11 13  1  0  0  0
 11 14  1  0  0  0
 14 18  1  0  0  0
 15 20  1  0  0  0
 16 17  2  0  0  0
 17 19  1  0  0  0
 21 17  1  0  0  0
 21 22  1  0  0  0
 22 23  2  0  0  0
 22 24  1  0  0  0
 24 26  2  0  0  0
M  END
>  <CHROM.0>
-54.46682396,-62.22485401,61.61214645

>  <CHROM.1>
-177.12167114,56.98282278,131.28487620,46.95739119,-51.68850349,-48.10648520
-3.81395983,16.58127811,-0.87541699,0.52940485,2.56301186

>  <HEADER>
                                                                          

>  <MASTER>
        0    0    0    0    0    0    0    0   43    0   43    0          

>  <Name>
Baricitinib.pdb

>  <RI>
-2.34331e+08

>  <Rbt.Current_Directory>
/root/miniconda3/envs/rdock/share/rxdock-2013.1.1_148c5bd1-0/data/ligands/prepped_ligands/Baricitinib

>  <Rbt.Executable>
rbdock/0.1.0

>  <Rbt.Library>
librxdock.so/0.1.0

>  <Rbt.Parameter_File>
/root/miniconda3/envs/rdock/share/rxdock-2013.1.1_148c5bd1-0/data/scripts/dock.prm

>  <Rbt.Receptor>
def.prm

>  <SCORE>
-17.8189

>  <SCORE.INTER>
-15.342

>  <SCORE.INTER.CONST>
1

>  <SCORE.INTER.POLAR>
-1.29122

>  <SCORE.INTER.REPUL>
0.00401819

>  <SCORE.INTER.ROT>
5

>  <SCORE.INTER.VDW>
-21.3719

>  <SCORE.INTER.norm>
-0.590075

>  <SCORE.INTRA>
-1.4761

>  <SCORE.INTRA.DIHEDRAL>
-2.69473

>  <SCORE.INTRA.DIHEDRAL.0>
6.89936

>  <SCORE.INTRA.POLAR>
0

>  <SCORE.INTRA.POLAR.0>
0

>  <SCORE.INTRA.REPUL>
0.0125636

>  <SCORE.INTRA.REPUL.0>
0

>  <SCORE.INTRA.VDW>
-0.191553

>  <SCORE.INTRA.VDW.0>
-2.33692

>  <SCORE.INTRA.norm>
-0.056773

>  <SCORE.RESTR>
0

>  <SCORE.RESTR.CAVITY>
0

>  <SCORE.RESTR.norm>
0

>  <SCORE.SYSTEM>
-1.00084

>  <SCORE.SYSTEM.CONST>
0

>  <SCORE.SYSTEM.DIHEDRAL>
0.100674

>  <SCORE.SYSTEM.POLAR>
-0.00474481

>  <SCORE.SYSTEM.VDW>
-1.03505

>  <SCORE.SYSTEM.norm>
-0.0384939

>  <SCORE.heavy>
26

>  <SCORE.norm>
-0.685342

>  <TITLE>
    44205240_D                                                            

$$$$
Baricitinib.pdb
  RxDock  02242112483D
librxdock.so/0.1.0
 27 30  0  0  0  0  0  0  0  0999 V2000
  -49.1043   -5.4954   17.7658 S   0  0  0  0  0  0
  -48.8295   -5.3667   19.1592 O   0  0  0  0  0  0
  -48.7509   -4.4331   16.8810 O   0  0  0  0  0  0
  -50.6992   -5.7006   17.6343 N   0  0  0  0  0  0
  -51.9940   -3.9122   15.6814 N   0  0  0  0  0  0
  -52.8838   -3.4562   14.7741 N   0  0  0  0  0  0
  -54.8065   -6.1469   14.5759 N   0  0  0  0  0  0
  -50.6158   -0.3794   13.0858 N   0  0  0  0  0  0
  -46.6843   -0.2865   14.1482 N   0  0  0  0  0  0
  -48.4498    0.6984   12.8808 N   0  0  0  0  0  0
  -52.2797   -4.9463   16.6914 C   0  0  0  0  0  0
  -51.3483   -6.1535   16.4110 C   0  0  0  0  0  0
  -51.6350   -4.6760   18.0769 C   0  0  0  0  0  0
  -53.7361   -5.4525   16.8449 C   0  0  0  0  0  0
  -48.3397   -7.0270   17.1733 C   0  0  0  0  0  0
  -50.8795   -3.1710   15.4745 C   0  0  0  0  0  0
  -51.0153   -2.2631   14.4838 C   0  0  0  0  0  0
  -54.3398   -5.8440   15.5651 C   0  0  0  0  0  0
  -52.3410   -2.4996   14.0716 C   0  0  0  0  0  0
  -48.8764   -8.2219   17.9756 C   0  0  0  0  0  0
  -50.0953   -1.2760   13.9527 C   0  0  0  0  0  0
  -48.7501   -1.2197   14.2925 C   0  0  0  0  0  0
  -47.9740   -0.2247   13.7373 C   0  0  0  0  0  0
  -47.8350   -1.9561   15.1132 C   0  0  0  0  0  0
  -49.7562    0.5498   12.6118 C   0  0  0  0  0  0
  -46.6450   -1.3730   14.9957 C   0  0  0  0  0  0
  -46.0210    0.2457   13.9226 H   0  0  0  0  0  0
  1  2  2  0  0  0
  1  3  2  0  0  0
  1  4  1  0  0  0
  1 15  1  0  0  0
  4 12  1  0  0  0
  4 13  1  0  0  0
  5  6  1  0  0  0
  5 11  1  0  0  0
  5 16  1  0  0  0
  6 19  2  0  0  0
  7 18  3  0  0  0
  8 21  1  0  0  0
  8 25  2  0  0  0
  9 23  1  0  0  0
  9 26  1  0  0  0
  9 27  1  0  0  0
 10 23  1  0  0  0
 10 25  1  0  0  0
 11 12  1  0  0  0
 11 13  1  0  0  0
 11 14  1  0  0  0
 14 18  1  0  0  0
 15 20  1  0  0  0
 16 17  2  0  0  0
 17 19  1  0  0  0
 21 17  1  0  0  0
 21 22  1  0  0  0
 22 23  2  0  0  0
 22 24  1  0  0  0
 24 26  2  0  0  0
M  END
>  <CHROM.0>
-64.57864431,57.50032776,60.13322492

>  <CHROM.1>
-166.38014604,57.51238455,117.65038553,50.34194243,-170.29897393,-50.23903370
-3.63225493,15.71211442,-1.92842249,-0.26088331,-0.65154508

>  <HEADER>
                                                                          

>  <MASTER>
        0    0    0    0    0    0    0    0   43    0   43    0          

>  <Name>
Baricitinib.pdb

>  <RI>
-2.34331e+08

>  <Rbt.Current_Directory>
/root/miniconda3/envs/rdock/share/rxdock-2013.1.1_148c5bd1-0/data/ligands/prepped_ligands/Baricitinib

>  <Rbt.Executable>
rbdock/0.1.0

>  <Rbt.Library>
librxdock.so/0.1.0

>  <Rbt.Parameter_File>
/root/miniconda3/envs/rdock/share/rxdock-2013.1.1_148c5bd1-0/data/scripts/dock.prm

>  <Rbt.Receptor>
def.prm

>  <SCORE>
-16.8269

>  <SCORE.INTER>
-14.2982

>  <SCORE.INTER.CONST>
1

>  <SCORE.INTER.POLAR>
-1.02024

>  <SCORE.INTER.REPUL>
0.0605205

>  <SCORE.INTER.ROT>
5

>  <SCORE.INTER.VDW>
-21.532

>  <SCORE.INTER.norm>
-0.549932

>  <SCORE.INTRA>
-1.66874

>  <SCORE.INTRA.DIHEDRAL>
-3.05262

>  <SCORE.INTRA.DIHEDRAL.0>
6.89936

>  <SCORE.INTRA.POLAR>
0

>  <SCORE.INTRA.POLAR.0>
0

>  <SCORE.INTRA.REPUL>
0

>  <SCORE.INTRA.REPUL.0>
0

>  <SCORE.INTRA.VDW>
-0.14243

>  <SCORE.INTRA.VDW.0>
-2.33692

>  <SCORE.INTRA.norm>
-0.0641822

>  <SCORE.RESTR>
0

>  <SCORE.RESTR.CAVITY>
0

>  <SCORE.RESTR.norm>
0

>  <SCORE.SYSTEM>
-0.85989

>  <SCORE.SYSTEM.CONST>
0

>  <SCORE.SYSTEM.DIHEDRAL>
0.0857553

>  <SCORE.SYSTEM.POLAR>
-0.00137737

>  <SCORE.SYSTEM.VDW>
-0.898084

>  <SCORE.SYSTEM.norm>
-0.0330727

>  <SCORE.heavy>
26

>  <SCORE.norm>
-0.647187

>  <TITLE>
    44205240_D                                                            

$$$$
Baricitinib.pdb
  RxDock  02242112493D
librxdock.so/0.1.0
 27 30  0  0  0  0  0  0  0  0999 V2000
  -44.6067   -1.5911   17.4996 S   0  0  0  0  0  0
  -44.2915   -1.4371   16.1173 O   0  0  0  0  0  0
  -45.2793   -2.7710   17.9376 O   0  0  0  0  0  0
  -45.5510   -0.3431   17.8920 N   0  0  0  0  0  0
  -48.3106   -1.0905   18.6095 N   0  0  0  0  0  0
  -48.4642   -1.7395   19.7834 N   0  0  0  0  0  0
  -50.3667    1.8775   17.7643 N   0  0  0  0  0  0
  -52.0810   -3.0373   17.5267 N   0  0  0  0  0  0
  -51.3777   -7.0008   16.9025 N   0  0  0  0  0  0
  -52.9158   -5.1827   16.7549 N   0  0  0  0  0  0
  -47.4285    0.0712   18.4013 C   0  0  0  0  0  0
  -46.1314   -0.1660   19.2166 C   0  0  0  0  0  0
  -46.6687    0.0573   17.0483 C   0  0  0  0  0  0
  -47.9761    1.4859   18.7171 C   0  0  0  0  0  0
  -43.0806   -1.4002   18.4567 C   0  0  0  0  0  0
  -49.1713   -1.7027   17.7616 C   0  0  0  0  0  0
  -49.8681   -2.7066   18.3367 C   0  0  0  0  0  0
  -49.3243    1.7067   18.1795 C   0  0  0  0  0  0
  -49.3624   -2.6770   19.6508 C   0  0  0  0  0  0
  -43.3685   -1.6286   19.9481 C   0  0  0  0  0  0
  -50.8835   -3.5969   17.8083 C   0  0  0  0  0  0
  -50.6761   -4.9520   17.5872 C   0  0  0  0  0  0
  -51.7110   -5.6975   17.0640 C   0  0  0  0  0  0
  -49.6183   -5.9024   17.7633 C   0  0  0  0  0  0
  -53.0149   -3.8698   17.0150 C   0  0  0  0  0  0
  -50.0762   -7.0811   17.3496 C   0  0  0  0  0  0
  -51.8801   -7.6501   16.5858 H   0  0  0  0  0  0
  1  2  2  0  0  0
  1  3  2  0  0  0
  1  4  1  0  0  0
  1 15  1  0  0  0
  4 12  1  0  0  0
  4 13  1  0  0  0
  5  6  1  0  0  0
  5 11  1  0  0  0
  5 16  1  0  0  0
  6 19  2  0  0  0
  7 18  3  0  0  0
  8 21  1  0  0  0
  8 25  2  0  0  0
  9 23  1  0  0  0
  9 26  1  0  0  0
  9 27  1  0  0  0
 10 23  1  0  0  0
 10 25  1  0  0  0
 11 12  1  0  0  0
 11 13  1  0  0  0
 11 14  1  0  0  0
 14 18  1  0  0  0
 15 20  1  0  0  0
 16 17  2  0  0  0
 17 19  1  0  0  0
 21 17  1  0  0  0
 21 22  1  0  0  0
 22 23  2  0  0  0
 22 24  1  0  0  0
 24 26  2  0  0  0
M  END
>  <CHROM.0>
-175.57370373,61.18890092,61.92864050

>  <CHROM.1>
177.58800204,-177.22630576,38.75672052,-45.69831307,-69.78077108,-48.22429371
-2.26762608,17.93684546,-0.60413347,0.03617359,-3.00490593

>  <HEADER>
                                                                          

>  <MASTER>
        0    0    0    0    0    0    0    0   43    0   43    0          

>  <Name>
Baricitinib.pdb

>  <RI>
-2.34331e+08

>  <Rbt.Current_Directory>
/root/miniconda3/envs/rdock/share/rxdock-2013.1.1_148c5bd1-0/data/ligands/prepped_ligands/Baricitinib

>  <Rbt.Executable>
rbdock/0.1.0

>  <Rbt.Library>
librxdock.so/0.1.0

>  <Rbt.Parameter_File>
/root/miniconda3/envs/rdock/share/rxdock-2013.1.1_148c5bd1-0/data/scripts/dock.prm

>  <Rbt.Receptor>
def.prm

>  <SCORE>
-12.0609

>  <SCORE.INTER>
-10.3007

>  <SCORE.INTER.CONST>
1

>  <SCORE.INTER.POLAR>
-1.36091

>  <SCORE.INTER.REPUL>
0.00045813

>  <SCORE.INTER.ROT>
5

>  <SCORE.INTER.VDW>
-16.0759

>  <SCORE.INTER.norm>
-0.396179

>  <SCORE.INTRA>
-0.820773

>  <SCORE.INTRA.DIHEDRAL>
-1.54916

>  <SCORE.INTRA.DIHEDRAL.0>
6.89936

>  <SCORE.INTRA.POLAR>
0

>  <SCORE.INTRA.POLAR.0>
0

>  <SCORE.INTRA.REPUL>
0

>  <SCORE.INTRA.REPUL.0>
0

>  <SCORE.INTRA.VDW>
-0.0461954

>  <SCORE.INTRA.VDW.0>
-2.33692

>  <SCORE.INTRA.norm>
-0.0315682

>  <SCORE.RESTR>
0

>  <SCORE.RESTR.CAVITY>
0

>  <SCORE.RESTR.norm>
0

>  <SCORE.SYSTEM>
-0.939516

>  <SCORE.SYSTEM.CONST>
0

>  <SCORE.SYSTEM.DIHEDRAL>
0.059654

>  <SCORE.SYSTEM.POLAR>
-0.00541268

>  <SCORE.SYSTEM.VDW>
-0.95094

>  <SCORE.SYSTEM.norm>
-0.0361352

>  <SCORE.heavy>
26

>  <SCORE.norm>
-0.463882

>  <TITLE>
    44205240_D                                                            

$$$$
