Baricitinib.pdb
  RxDock  02242110273D
librxdock.so/0.1.0
 27 30  0  0  0  0  0  0  0  0999 V2000
  -49.9956   -4.9523   18.6171 S   0  0  0  0  0  0
  -50.1306   -4.3489   19.9022 O   0  0  0  0  0  0
  -49.3258   -4.2419   17.5764 O   0  0  0  0  0  0
  -51.4932   -5.2449   18.0929 N   0  0  0  0  0  0
  -52.2437   -3.7435   15.6698 N   0  0  0  0  0  0
  -52.9540   -3.2465   14.6347 N   0  0  0  0  0  0
  -54.6382   -6.1632   14.1128 N   0  0  0  0  0  0
  -50.1669   -0.4732   13.2061 N   0  0  0  0  0  0
  -46.3363   -1.0135   14.4823 N   0  0  0  0  0  0
  -47.8519    0.2566   13.1470 N   0  0  0  0  0  0
  -52.7740   -4.6729   16.6828 C   0  0  0  0  0  0
  -51.7827   -5.8588   16.8037 C   0  0  0  0  0  0
  -52.5293   -4.2228   18.1476 C   0  0  0  0  0  0
  -54.2099   -5.2267   16.5035 C   0  0  0  0  0  0
  -49.2010   -6.5667   18.8263 C   0  0  0  0  0  0
  -51.0307   -3.1489   15.5731 C   0  0  0  0  0  0
  -50.9332   -2.2952   14.5310 C   0  0  0  0  0  0
  -54.4515   -5.7547   15.1551 C   0  0  0  0  0  0
  -52.2174   -2.4040   13.9632 C   0  0  0  0  0  0
  -48.8165   -7.1403   17.4542 C   0  0  0  0  0  0
  -49.8424   -1.4549   14.0764 C   0  0  0  0  0  0
  -48.5265   -1.6151   14.4900 C   0  0  0  0  0  0
  -47.5750   -0.7440   14.0038 C   0  0  0  0  0  0
  -47.7854   -2.4993   15.3398 C   0  0  0  0  0  0
  -49.1479    0.3185   12.8037 C   0  0  0  0  0  0
  -46.5146   -2.1072   15.3022 C   0  0  0  0  0  0
  -45.5866   -0.5875   14.3069 H   0  0  0  0  0  0
  1  2  2  0  0  0
  1  3  2  0  0  0
  1  4  1  0  0  0
  1 15  1  0  0  0
  4 12  1  0  0  0
  4 13  1  0  0  0
  5  6  1  0  0  0
  5 11  1  0  0  0
  5 16  1  0  0  0
  6 19  2  0  0  0
  7 18  3  0  0  0
  8 21  1  0  0  0
  8 25  2  0  0  0
  9 23  1  0  0  0
  9 26  1  0  0  0
  9 27  1  0  0  0
 10 23  1  0  0  0
 10 25  1  0  0  0
 11 12  1  0  0  0
 11 13  1  0  0  0
 11 14  1  0  0  0
 14 18  1  0  0  0
 15 20  1  0  0  0
 16 17  2  0  0  0
 17 19  1  0  0  0
 21 17  1  0  0  0
 21 22  1  0  0  0
 22 23  2  0  0  0
 22 24  1  0  0  0
 24 26  2  0  0  0
M  END
>  <CHROM.0>
-177.92139666,-62.58929089,65.19169660

>  <CHROM.1>
179.82349483,-170.20318162,130.05128356,48.97862920,-163.95652091,-50.43758560
-3.52859925,15.94760641,-2.16939497,-0.33475834,-0.85948671

>  <HEADER>
                                                                          

>  <MASTER>
        0    0    0    0    0    0    0    0   43    0   43    0          

>  <Name>
Baricitinib.pdb

>  <RI>
-1.14841e+09

>  <Rbt.Current_Directory>
/root/miniconda3/envs/rdock/share/rxdock-2013.1.1_148c5bd1-0/data/ligands/prepped_ligands/Baricitinib

>  <Rbt.Executable>
rbdock/0.1.0

>  <Rbt.Library>
librxdock.so/0.1.0

>  <Rbt.Parameter_File>
/root/miniconda3/envs/rdock/share/rxdock-2013.1.1_148c5bd1-0/data/scripts/dock.prm

>  <Rbt.Receptor>
def.prm

>  <SCORE>
-16.4195

>  <SCORE.INTER>
-14.4778

>  <SCORE.INTER.CONST>
1

>  <SCORE.INTER.POLAR>
-1.40083

>  <SCORE.INTER.REPUL>
0.0363802

>  <SCORE.INTER.ROT>
5

>  <SCORE.INTER.VDW>
-20.2969

>  <SCORE.INTER.norm>
-0.556839

>  <SCORE.INTRA>
-0.941145

>  <SCORE.INTRA.DIHEDRAL>
-2.19838

>  <SCORE.INTRA.DIHEDRAL.0>
6.89936

>  <SCORE.INTRA.POLAR>
0

>  <SCORE.INTRA.POLAR.0>
0

>  <SCORE.INTRA.REPUL>
0

>  <SCORE.INTRA.REPUL.0>
0

>  <SCORE.INTRA.VDW>
0.158043

>  <SCORE.INTRA.VDW.0>
-2.33692

>  <SCORE.INTRA.norm>
-0.0361979

>  <SCORE.RESTR>
0

>  <SCORE.RESTR.CAVITY>
0

>  <SCORE.RESTR.norm>
0

>  <SCORE.SYSTEM>
-1.00058

>  <SCORE.SYSTEM.CONST>
0

>  <SCORE.SYSTEM.DIHEDRAL>
0.104262

>  <SCORE.SYSTEM.POLAR>
-0.0112836

>  <SCORE.SYSTEM.VDW>
-1.01434

>  <SCORE.SYSTEM.norm>
-0.0384837

>  <SCORE.heavy>
26

>  <SCORE.norm>
-0.63152

>  <TITLE>
    44205240_D                                                            

$$$$
Baricitinib.pdb
  RxDock  02242110273D
librxdock.so/0.1.0
 27 30  0  0  0  0  0  0  0  0999 V2000
  -45.8904   -0.5286   17.4994 S   0  0  0  0  0  0
  -46.2133   -1.6198   18.3589 O   0  0  0  0  0  0
  -46.2738    0.7943   17.8724 O   0  0  0  0  0  0
  -46.6015   -0.8388   16.0847 N   0  0  0  0  0  0
  -48.6204   -2.9841   16.1882 N   0  0  0  0  0  0
  -49.1474   -2.6194   17.3766 N   0  0  0  0  0  0
  -50.8780   -1.4276   13.4782 N   0  0  0  0  0  0
  -51.5351   -6.2141   17.2878 N   0  0  0  0  0  0
  -49.1651   -9.4108   18.1586 N   0  0  0  0  0  0
  -51.3734   -8.5827   17.7967 N   0  0  0  0  0  0
  -47.9274   -2.0719   15.2615 C   0  0  0  0  0  0
  -48.0248   -0.6389   15.8452 C   0  0  0  0  0  0
  -46.3806   -2.0965   15.3842 C   0  0  0  0  0  0
  -48.3673   -2.0469   13.7760 C   0  0  0  0  0  0
  -44.1053   -0.5540   17.1924 C   0  0  0  0  0  0
  -48.9381   -4.2942   16.0573 C   0  0  0  0  0  0
  -49.6441   -4.7819   17.1003 C   0  0  0  0  0  0
  -49.7833   -1.6978   13.6081 C   0  0  0  0  0  0
  -49.7473   -3.6424   17.9215 C   0  0  0  0  0  0
  -43.6230   -2.0045   17.0406 C   0  0  0  0  0  0
  -50.1902   -6.1002   17.3580 C   0  0  0  0  0  0
  -49.4099   -7.2084   17.6602 C   0  0  0  0  0  0
  -50.0394   -8.4170   17.8692 C   0  0  0  0  0  0
  -48.0206   -7.5037   17.8487 C   0  0  0  0  0  0
  -52.0342   -7.4507   17.5088 C   0  0  0  0  0  0
  -47.9298   -8.7995   18.1367 C   0  0  0  0  0  0
  -49.3458  -10.2557   18.3254 H   0  0  0  0  0  0
  1  2  2  0  0  0
  1  3  2  0  0  0
  1  4  1  0  0  0
  1 15  1  0  0  0
  4 12  1  0  0  0
  4 13  1  0  0  0
  5  6  1  0  0  0
  5 11  1  0  0  0
  5 16  1  0  0  0
  6 19  2  0  0  0
  7 18  3  0  0  0
  8 21  1  0  0  0
  8 25  2  0  0  0
  9 23  1  0  0  0
  9 26  1  0  0  0
  9 27  1  0  0  0
 10 23  1  0  0  0
 10 25  1  0  0  0
 11 12  1  0  0  0
 11 13  1  0  0  0
 11 14  1  0  0  0
 14 18  1  0  0  0
 15 20  1  0  0  0
 16 17  2  0  0  0
 17 19  1  0  0  0
 21 17  1  0  0  0
 21 22  1  0  0  0
 22 23  2  0  0  0
 22 24  1  0  0  0
 24 26  2  0  0  0
M  END
>  <CHROM.0>
173.72378548,-63.80724816,-59.31173633

>  <CHROM.1>
77.66196669,38.52022157,-4.52872903,58.71578165,-108.89175419,-48.25644642
-3.69782901,16.81273063,-0.99324995,0.49803165,2.68598878

>  <HEADER>
                                                                          

>  <MASTER>
        0    0    0    0    0    0    0    0   43    0   43    0          

>  <Name>
Baricitinib.pdb

>  <RI>
-1.14841e+09

>  <Rbt.Current_Directory>
/root/miniconda3/envs/rdock/share/rxdock-2013.1.1_148c5bd1-0/data/ligands/prepped_ligands/Baricitinib

>  <Rbt.Executable>
rbdock/0.1.0

>  <Rbt.Library>
librxdock.so/0.1.0

>  <Rbt.Parameter_File>
/root/miniconda3/envs/rdock/share/rxdock-2013.1.1_148c5bd1-0/data/scripts/dock.prm

>  <Rbt.Receptor>
def.prm

>  <SCORE>
-16.0244

>  <SCORE.INTER>
-14.3799

>  <SCORE.INTER.CONST>
1

>  <SCORE.INTER.POLAR>
-1.29114

>  <SCORE.INTER.REPUL>
0

>  <SCORE.INTER.ROT>
5

>  <SCORE.INTER.VDW>
-20.3901

>  <SCORE.INTER.norm>
-0.553075

>  <SCORE.INTRA>
-0.655757

>  <SCORE.INTRA.DIHEDRAL>
-2.57939

>  <SCORE.INTRA.DIHEDRAL.0>
6.89936

>  <SCORE.INTRA.POLAR>
0

>  <SCORE.INTRA.POLAR.0>
0

>  <SCORE.INTRA.REPUL>
0

>  <SCORE.INTRA.REPUL.0>
0

>  <SCORE.INTRA.VDW>
0.633938

>  <SCORE.INTRA.VDW.0>
-2.33692

>  <SCORE.INTRA.norm>
-0.0252214

>  <SCORE.RESTR>
0

>  <SCORE.RESTR.CAVITY>
0

>  <SCORE.RESTR.norm>
0

>  <SCORE.SYSTEM>
-0.988676

>  <SCORE.SYSTEM.CONST>
0

>  <SCORE.SYSTEM.DIHEDRAL>
0.172975

>  <SCORE.SYSTEM.POLAR>
-0.00252771

>  <SCORE.SYSTEM.VDW>
-1.06657

>  <SCORE.SYSTEM.norm>
-0.038026

>  <SCORE.heavy>
26

>  <SCORE.norm>
-0.616322

>  <TITLE>
    44205240_D                                                            

$$$$
Baricitinib.pdb
  RxDock  02242110273D
librxdock.so/0.1.0
 27 30  0  0  0  0  0  0  0  0999 V2000
  -53.1345   -6.7132   16.4957 S   0  0  0  0  0  0
  -52.7225   -7.8997   17.1713 O   0  0  0  0  0  0
  -52.3577   -6.2232   15.4036 O   0  0  0  0  0  0
  -53.1649   -5.5446   17.6078 N   0  0  0  0  0  0
  -50.9023   -3.6620   17.4490 N   0  0  0  0  0  0
  -49.8468   -4.4827   17.2604 N   0  0  0  0  0  0
  -52.6216   -0.5601   18.7115 N   0  0  0  0  0  0
  -49.5685   -1.0959   14.2486 N   0  0  0  0  0  0
  -45.5579   -0.4045   14.4260 N   0  0  0  0  0  0
  -47.6429    0.1036   13.3831 N   0  0  0  0  0  0
  -52.0935   -3.9964   18.2491 C   0  0  0  0  0  0
  -53.2946   -4.1313   17.2781 C   0  0  0  0  0  0
  -52.1750   -5.4866   18.6745 C   0  0  0  0  0  0
  -52.4886   -3.0614   19.4198 C   0  0  0  0  0  0
  -54.8443   -6.9379   15.9412 C   0  0  0  0  0  0
  -50.6235   -2.5649   16.7054 C   0  0  0  0  0  0
  -49.4457   -2.6464   16.0495 C   0  0  0  0  0  0
  -52.5634   -1.6506   19.0203 C   0  0  0  0  0  0
  -48.9923   -3.9176   16.4518 C   0  0  0  0  0  0
  -55.2965   -5.7109   15.1353 C   0  0  0  0  0  0
  -48.7810   -1.7231   15.1503 C   0  0  0  0  0  0
  -47.4164   -1.4681   15.1833 C   0  0  0  0  0  0
  -46.8975   -0.5557   14.2895 C   0  0  0  0  0  0
  -46.2751   -1.9138   15.9262 C   0  0  0  0  0  0
  -48.9443   -0.2215   13.4283 C   0  0  0  0  0  0
  -45.2169   -1.2647   15.4478 C   0  0  0  0  0  0
  -45.0255    0.1224   13.9644 H   0  0  0  0  0  0
  1  2  2  0  0  0
  1  3  2  0  0  0
  1  4  1  0  0  0
  1 15  1  0  0  0
  4 12  1  0  0  0
  4 13  1  0  0  0
  5  6  1  0  0  0
  5 11  1  0  0  0
  5 16  1  0  0  0
  6 19  2  0  0  0
  7 18  3  0  0  0
  8 21  1  0  0  0
  8 25  2  0  0  0
  9 23  1  0  0  0
  9 26  1  0  0  0
  9 27  1  0  0  0
 10 23  1  0  0  0
 10 25  1  0  0  0
 11 12  1  0  0  0
 11 13  1  0  0  0
 11 14  1  0  0  0
 14 18  1  0  0  0
 15 20  1  0  0  0
 16 17  2  0  0  0
 17 19  1  0  0  0
 21 17  1  0  0  0
 21 22  1  0  0  0
 22 23  2  0  0  0
 22 24  1  0  0  0
 24 26  2  0  0  0
M  END
>  <CHROM.0>
-59.37541780,-60.72620477,54.82032005

>  <CHROM.1>
168.20498821,-176.65967742,-111.82421857,50.89582129,-41.26725895,-50.70304498
-3.48058267,16.33226820,-2.82317178,0.65976209,0.66002592

>  <HEADER>
                                                                          

>  <MASTER>
        0    0    0    0    0    0    0    0   43    0   43    0          

>  <Name>
Baricitinib.pdb

>  <RI>
-1.14841e+09

>  <Rbt.Current_Directory>
/root/miniconda3/envs/rdock/share/rxdock-2013.1.1_148c5bd1-0/data/ligands/prepped_ligands/Baricitinib

>  <Rbt.Executable>
rbdock/0.1.0

>  <Rbt.Library>
librxdock.so/0.1.0

>  <Rbt.Parameter_File>
/root/miniconda3/envs/rdock/share/rxdock-2013.1.1_148c5bd1-0/data/scripts/dock.prm

>  <Rbt.Receptor>
def.prm

>  <SCORE>
-11.9181

>  <SCORE.INTER>
-9.92912

>  <SCORE.INTER.CONST>
1

>  <SCORE.INTER.POLAR>
-0.477421

>  <SCORE.INTER.REPUL>
0.00716083

>  <SCORE.INTER.ROT>
5

>  <SCORE.INTER.VDW>
-18.7417

>  <SCORE.INTER.norm>
-0.381889

>  <SCORE.INTRA>
-0.9532

>  <SCORE.INTRA.DIHEDRAL>
-2.14322

>  <SCORE.INTRA.DIHEDRAL.0>
6.89936

>  <SCORE.INTRA.POLAR>
0

>  <SCORE.INTRA.POLAR.0>
0

>  <SCORE.INTRA.REPUL>
0

>  <SCORE.INTRA.REPUL.0>
0

>  <SCORE.INTRA.VDW>
0.118409

>  <SCORE.INTRA.VDW.0>
-2.33692

>  <SCORE.INTRA.norm>
-0.0366615

>  <SCORE.RESTR>
0.00697358

>  <SCORE.RESTR.CAVITY>
0.00697358

>  <SCORE.RESTR.norm>
0.000268215

>  <SCORE.SYSTEM>
-1.04273

>  <SCORE.SYSTEM.CONST>
0

>  <SCORE.SYSTEM.DIHEDRAL>
0.0732662

>  <SCORE.SYSTEM.VDW>
-1.07936

>  <SCORE.SYSTEM.norm>
-0.0401049

>  <SCORE.heavy>
26

>  <SCORE.norm>
-0.458387

>  <TITLE>
    44205240_D                                                            

$$$$
Baricitinib.pdb
  RxDock  02242110273D
librxdock.so/0.1.0
 27 30  0  0  0  0  0  0  0  0999 V2000
  -50.0204   -5.5668   19.9718 S   0  0  0  0  0  0
  -50.9906   -5.4397   21.0093 O   0  0  0  0  0  0
  -48.7632   -6.1777   20.2592 O   0  0  0  0  0  0
  -49.7050   -4.0699   19.4589 N   0  0  0  0  0  0
  -51.4027   -3.1727   17.2224 N   0  0  0  0  0  0
  -51.6458   -2.7077   15.9784 N   0  0  0  0  0  0
  -51.5285    0.4703   17.6041 N   0  0  0  0  0  0
  -55.5442   -4.4882   15.9535 N   0  0  0  0  0  0
  -55.2581   -8.5463   16.1632 N   0  0  0  0  0  0
  -56.6493   -6.6440   15.7903 N   0  0  0  0  0  0
  -50.2615   -2.7679   18.0620 C   0  0  0  0  0  0
  -50.6652   -2.9773   19.5442 C   0  0  0  0  0  0
  -49.1276   -3.8242   18.1446 C   0  0  0  0  0  0
  -49.6815   -1.3415   17.8897 C   0  0  0  0  0  0
  -50.7862   -6.4354   18.5788 C   0  0  0  0  0  0
  -52.3735   -4.0908   17.4435 C   0  0  0  0  0  0
  -53.2209   -4.2371   16.4020 C   0  0  0  0  0  0
  -50.7233   -0.3197   17.7284 C   0  0  0  0  0  0
  -52.6914   -3.3111   15.4824 C   0  0  0  0  0  0
  -51.0884   -7.8889   18.9733 C   0  0  0  0  0  0
  -54.3686   -5.1027   16.2116 C   0  0  0  0  0  0
  -54.3044   -6.4882   16.2797 C   0  0  0  0  0  0
  -55.4590   -7.2100   16.0640 C   0  0  0  0  0  0
  -53.3131   -7.4893   16.5405 C   0  0  0  0  0  0
  -56.6046   -5.3031   15.7567 C   0  0  0  0  0  0
  -53.9179   -8.6716   16.4607 C   0  0  0  0  0  0
  -55.8506   -9.1890   16.0629 H   0  0  0  0  0  0
  1  2  2  0  0  0
  1  3  2  0  0  0
  1  4  1  0  0  0
  1 15  1  0  0  0
  4 12  1  0  0  0
  4 13  1  0  0  0
  5  6  1  0  0  0
  5 11  1  0  0  0
  5 16  1  0  0  0
  6 19  2  0  0  0
  7 18  3  0  0  0
  8 21  1  0  0  0
  8 25  2  0  0  0
  9 23  1  0  0  0
  9 26  1  0  0  0
  9 27  1  0  0  0
 10 23  1  0  0  0
 10 25  1  0  0  0
 11 12  1  0  0  0
 11 13  1  0  0  0
 11 14  1  0  0  0
 14 18  1  0  0  0
 15 20  1  0  0  0
 16 17  2  0  0  0
 17 19  1  0  0  0
 21 17  1  0  0  0
 21 22  1  0  0  0
 22 23  2  0  0  0
 22 24  1  0  0  0
 24 26  2  0  0  0
M  END
>  <CHROM.0>
179.38662261,-177.57515603,-134.63420856

>  <CHROM.1>
-27.45400701,-67.40262068,154.49909397,41.42806162,121.48262155,-52.14208093
-4.83281617,17.68747922,-0.39105879,0.62319023,2.86047313

>  <HEADER>
                                                                          

>  <MASTER>
        0    0    0    0    0    0    0    0   43    0   43    0          

>  <Name>
Baricitinib.pdb

>  <RI>
-1.14841e+09

>  <Rbt.Current_Directory>
/root/miniconda3/envs/rdock/share/rxdock-2013.1.1_148c5bd1-0/data/ligands/prepped_ligands/Baricitinib

>  <Rbt.Executable>
rbdock/0.1.0

>  <Rbt.Library>
librxdock.so/0.1.0

>  <Rbt.Parameter_File>
/root/miniconda3/envs/rdock/share/rxdock-2013.1.1_148c5bd1-0/data/scripts/dock.prm

>  <Rbt.Receptor>
def.prm

>  <SCORE>
-10.944

>  <SCORE.INTER>
-11.2879

>  <SCORE.INTER.CONST>
1

>  <SCORE.INTER.POLAR>
-1.1398

>  <SCORE.INTER.REPUL>
0

>  <SCORE.INTER.ROT>
5

>  <SCORE.INTER.VDW>
-17.8125

>  <SCORE.INTER.norm>
-0.434149

>  <SCORE.INTRA>
-0.741325

>  <SCORE.INTRA.DIHEDRAL>
-1.52262

>  <SCORE.INTRA.DIHEDRAL.0>
6.89936

>  <SCORE.INTRA.POLAR>
0

>  <SCORE.INTRA.POLAR.0>
0

>  <SCORE.INTRA.REPUL>
0

>  <SCORE.INTRA.REPUL.0>
0

>  <SCORE.INTRA.VDW>
0.0199832

>  <SCORE.INTRA.VDW.0>
-2.33692

>  <SCORE.INTRA.norm>
-0.0285125

>  <SCORE.RESTR>
0

>  <SCORE.RESTR.CAVITY>
0

>  <SCORE.RESTR.norm>
0

>  <SCORE.SYSTEM>
1.08522

>  <SCORE.SYSTEM.CONST>
0

>  <SCORE.SYSTEM.DIHEDRAL>
3.1165

>  <SCORE.SYSTEM.POLAR>
-0.000129249

>  <SCORE.SYSTEM.VDW>
-0.472589

>  <SCORE.SYSTEM.norm>
0.0417393

>  <SCORE.heavy>
26

>  <SCORE.norm>
-0.420922

>  <TITLE>
    44205240_D                                                            

$$$$
Baricitinib.pdb
  RxDock  02242110273D
librxdock.so/0.1.0
 27 30  0  0  0  0  0  0  0  0999 V2000
  -54.0619   -5.8339   16.0210 S   0  0  0  0  0  0
  -53.1047   -5.6113   14.9875 O   0  0  0  0  0  0
  -55.2422   -5.0331   16.0672 O   0  0  0  0  0  0
  -53.2860   -5.6017   17.4164 N   0  0  0  0  0  0
  -50.5647   -4.5077   17.1221 N   0  0  0  0  0  0
  -49.7484   -5.2843   16.3781 N   0  0  0  0  0  0
  -48.8171   -5.9633   20.1415 N   0  0  0  0  0  0
  -49.7787   -1.3784   14.1870 N   0  0  0  0  0  0
  -45.8549   -0.2975   14.3603 N   0  0  0  0  0  0
  -48.0273    0.1471   13.4792 N   0  0  0  0  0  0
  -51.5223   -5.0121   18.1220 C   0  0  0  0  0  0
  -52.8736   -4.2877   17.8923 C   0  0  0  0  0  0
  -52.1242   -6.4011   17.7806 C   0  0  0  0  0  0
  -51.1459   -4.9225   19.6223 C   0  0  0  0  0  0
  -54.5426   -7.5801   15.9860 C   0  0  0  0  0  0
  -50.3342   -3.2467   16.6848 C   0  0  0  0  0  0
  -49.4151   -3.1808   15.6974 C   0  0  0  0  0  0
  -49.8325   -5.5097   19.9151 C   0  0  0  0  0  0
  -49.0755   -4.5391   15.5445 C   0  0  0  0  0  0
  -55.4454   -7.8480   14.7724 C   0  0  0  0  0  0
  -48.8903   -2.0565   14.9470 C   0  0  0  0  0  0
  -47.5586   -1.6648   14.9824 C   0  0  0  0  0  0
  -47.1772   -0.5678   14.2397 C   0  0  0  0  0  0
  -46.3444   -2.1007   15.6060 C   0  0  0  0  0  0
  -49.2854   -0.3192   13.5073 C   0  0  0  0  0  0
  -45.3810   -1.2718   15.2126 C   0  0  0  0  0  0
  -45.4008    0.3522   13.9783 H   0  0  0  0  0  0
  1  2  2  0  0  0
  1  3  2  0  0  0
  1  4  1  0  0  0
  1 15  1  0  0  0
  4 12  1  0  0  0
  4 13  1  0  0  0
  5  6  1  0  0  0
  5 11  1  0  0  0
  5 16  1  0  0  0
  6 19  2  0  0  0
  7 18  3  0  0  0
  8 21  1  0  0  0
  8 25  2  0  0  0
  9 23  1  0  0  0
  9 26  1  0  0  0
  9 27  1  0  0  0
 10 23  1  0  0  0
 10 25  1  0  0  0
 11 12  1  0  0  0
 11 13  1  0  0  0
 11 14  1  0  0  0
 14 18  1  0  0  0
 15 20  1  0  0  0
 16 17  2  0  0  0
 17 19  1  0  0  0
 21 17  1  0  0  0
 21 22  1  0  0  0
 22 23  2  0  0  0
 22 24  1  0  0  0
 24 26  2  0  0  0
M  END
>  <CHROM.0>
64.05045808,173.21636691,163.86084314

>  <CHROM.1>
71.96577976,-73.23131929,-133.62050870,-52.29836459,-63.04503917,-50.65197289
-3.99659976,16.15932475,2.58659104,0.46126855,2.14783657

>  <HEADER>
                                                                          

>  <MASTER>
        0    0    0    0    0    0    0    0   43    0   43    0          

>  <Name>
Baricitinib.pdb

>  <RI>
-1.14841e+09

>  <Rbt.Current_Directory>
/root/miniconda3/envs/rdock/share/rxdock-2013.1.1_148c5bd1-0/data/ligands/prepped_ligands/Baricitinib

>  <Rbt.Executable>
rbdock/0.1.0

>  <Rbt.Library>
librxdock.so/0.1.0

>  <Rbt.Parameter_File>
/root/miniconda3/envs/rdock/share/rxdock-2013.1.1_148c5bd1-0/data/scripts/dock.prm

>  <Rbt.Receptor>
def.prm

>  <SCORE>
-18.1905

>  <SCORE.INTER>
-15.8405

>  <SCORE.INTER.CONST>
1

>  <SCORE.INTER.POLAR>
-1.78281

>  <SCORE.INTER.REPUL>
0.030157

>  <SCORE.INTER.ROT>
5

>  <SCORE.INTER.VDW>
-20.3297

>  <SCORE.INTER.norm>
-0.60925

>  <SCORE.INTRA>
-1.74911

>  <SCORE.INTRA.DIHEDRAL>
-2.76931

>  <SCORE.INTRA.DIHEDRAL.0>
6.89936

>  <SCORE.INTRA.POLAR>
0

>  <SCORE.INTRA.POLAR.0>
0

>  <SCORE.INTRA.REPUL>
0

>  <SCORE.INTRA.REPUL.0>
0

>  <SCORE.INTRA.VDW>
-0.364456

>  <SCORE.INTRA.VDW.0>
-2.33692

>  <SCORE.INTRA.norm>
-0.0672735

>  <SCORE.RESTR>
0

>  <SCORE.RESTR.CAVITY>
0

>  <SCORE.RESTR.norm>
0

>  <SCORE.SYSTEM>
-0.600876

>  <SCORE.SYSTEM.CONST>
0

>  <SCORE.SYSTEM.DIHEDRAL>
0.879225

>  <SCORE.SYSTEM.VDW>
-1.04049

>  <SCORE.SYSTEM.norm>
-0.0231106

>  <SCORE.heavy>
26

>  <SCORE.norm>
-0.699634

>  <TITLE>
    44205240_D                                                            

$$$$
Baricitinib.pdb
  RxDock  02242110273D
librxdock.so/0.1.0
 27 30  0  0  0  0  0  0  0  0999 V2000
  -46.7707    0.4771   17.9076 S   0  0  0  0  0  0
  -46.8817   -0.7525   18.6213 O   0  0  0  0  0  0
  -47.5010    1.6172   18.3583 O   0  0  0  0  0  0
  -47.2626    0.1740   16.4012 N   0  0  0  0  0  0
  -47.9564   -2.6463   15.8977 N   0  0  0  0  0  0
  -47.0310   -3.1940   16.7142 N   0  0  0  0  0  0
  -50.8180   -1.4138   13.4132 N   0  0  0  0  0  0
  -50.9285   -5.5909   16.8288 N   0  0  0  0  0  0
  -49.3495   -9.1197   18.1128 N   0  0  0  0  0  0
  -51.3047   -7.8892   17.5158 N   0  0  0  0  0  0
  -47.8220   -1.3371   15.2351 C   0  0  0  0  0  0
  -48.6032   -0.2965   16.0779 C   0  0  0  0  0  0
  -46.4628   -0.6330   15.4899 C   0  0  0  0  0  0
  -48.2449   -1.2093   13.7500 C   0  0  0  0  0  0
  -45.0165    0.9148   17.7959 C   0  0  0  0  0  0
  -48.9885   -3.5232   15.9086 C   0  0  0  0  0  0
  -48.7693   -4.6002   16.6936 C   0  0  0  0  0  0
  -49.6961   -1.3248   13.5600 C   0  0  0  0  0  0
  -47.4803   -4.3237   17.1890 C   0  0  0  0  0  0
  -44.1691   -0.3590   17.6581 C   0  0  0  0  0  0
  -49.5974   -5.7507   16.9992 C   0  0  0  0  0  0
  -49.0903   -6.9654   17.4413 C   0  0  0  0  0  0
  -49.9734   -7.9959   17.6840 C   0  0  0  0  0  0
  -47.8099   -7.5230   17.7619 C   0  0  0  0  0  0
  -51.6912   -6.6745   17.0959 C   0  0  0  0  0  0
  -48.0140   -8.7799   18.1475 C   0  0  0  0  0  0
  -49.7152   -9.8916   18.3239 H   0  0  0  0  0  0
  1  2  2  0  0  0
  1  3  2  0  0  0
  1  4  1  0  0  0
  1 15  1  0  0  0
  4 12  1  0  0  0
  4 13  1  0  0  0
  5  6  1  0  0  0
  5 11  1  0  0  0
  5 16  1  0  0  0
  6 19  2  0  0  0
  7 18  3  0  0  0
  8 21  1  0  0  0
  8 25  2  0  0  0
  9 23  1  0  0  0
  9 26  1  0  0  0
  9 27  1  0  0  0
 10 23  1  0  0  0
 10 25  1  0  0  0
 11 12  1  0  0  0
 11 13  1  0  0  0
 11 14  1  0  0  0
 14 18  1  0  0  0
 15 20  1  0  0  0
 16 17  2  0  0  0
 17 19  1  0  0  0
 21 17  1  0  0  0
 21 22  1  0  0  0
 22 23  2  0  0  0
 22 24  1  0  0  0
 24 26  2  0  0  0
M  END
>  <CHROM.0>
62.55364336,-63.22896112,52.68215290

>  <CHROM.1>
60.64920085,34.71657204,-98.41410091,69.18166651,-22.60619752,-48.22939864
-3.12067003,16.79450560,-1.07154011,0.72873406,2.72153648

>  <HEADER>
                                                                          

>  <MASTER>
        0    0    0    0    0    0    0    0   43    0   43    0          

>  <Name>
Baricitinib.pdb

>  <RI>
-1.14841e+09

>  <Rbt.Current_Directory>
/root/miniconda3/envs/rdock/share/rxdock-2013.1.1_148c5bd1-0/data/ligands/prepped_ligands/Baricitinib

>  <Rbt.Executable>
rbdock/0.1.0

>  <Rbt.Library>
librxdock.so/0.1.0

>  <Rbt.Parameter_File>
/root/miniconda3/envs/rdock/share/rxdock-2013.1.1_148c5bd1-0/data/scripts/dock.prm

>  <Rbt.Receptor>
def.prm

>  <SCORE>
-13.9227

>  <SCORE.INTER>
-13.1958

>  <SCORE.INTER.CONST>
1

>  <SCORE.INTER.POLAR>
-0.821558

>  <SCORE.INTER.REPUL>
0

>  <SCORE.INTER.ROT>
5

>  <SCORE.INTER.VDW>
-20.8025

>  <SCORE.INTER.norm>
-0.50753

>  <SCORE.INTRA>
0.265477

>  <SCORE.INTRA.DIHEDRAL>
-1.48855

>  <SCORE.INTRA.DIHEDRAL.0>
6.89936

>  <SCORE.INTRA.POLAR>
0

>  <SCORE.INTRA.POLAR.0>
0

>  <SCORE.INTRA.REPUL>
0

>  <SCORE.INTRA.REPUL.0>
0

>  <SCORE.INTRA.VDW>
1.00975

>  <SCORE.INTRA.VDW.0>
-2.33692

>  <SCORE.INTRA.norm>
0.0102107

>  <SCORE.RESTR>
0

>  <SCORE.RESTR.CAVITY>
0

>  <SCORE.RESTR.norm>
0

>  <SCORE.SYSTEM>
-0.99235

>  <SCORE.SYSTEM.CONST>
0

>  <SCORE.SYSTEM.DIHEDRAL>
0.202051

>  <SCORE.SYSTEM.VDW>
-1.09338

>  <SCORE.SYSTEM.norm>
-0.0381673

>  <SCORE.heavy>
26

>  <SCORE.norm>
-0.535487

>  <TITLE>
    44205240_D                                                            

$$$$
Baricitinib.pdb
  RxDock  02242110273D
librxdock.so/0.1.0
 27 30  0  0  0  0  0  0  0  0999 V2000
  -54.1107   -5.6066   15.4388 S   0  0  0  0  0  0
  -53.4405   -4.7004   14.5650 O   0  0  0  0  0  0
  -55.3861   -5.2521   15.9717 O   0  0  0  0  0  0
  -53.1270   -5.8360   16.6968 N   0  0  0  0  0  0
  -51.1639   -3.6761   17.1094 N   0  0  0  0  0  0
  -51.4728   -2.5004   17.6970 N   0  0  0  0  0  0
  -48.2807   -5.6960   18.6035 N   0  0  0  0  0  0
  -50.0940   -0.6656   13.9847 N   0  0  0  0  0  0
  -46.0609   -0.2061   14.3266 N   0  0  0  0  0  0
  -48.0488    0.3097   13.1121 N   0  0  0  0  0  0
  -51.5723   -4.9994   17.6128 C   0  0  0  0  0  0
  -53.1021   -4.9609   17.8615 C   0  0  0  0  0  0
  -51.7039   -6.0848   16.5116 C   0  0  0  0  0  0
  -50.8667   -5.5658   18.8707 C   0  0  0  0  0  0
  -54.2529   -7.2062   14.6006 C   0  0  0  0  0  0
  -50.3805   -3.3405   16.0568 C   0  0  0  0  0  0
  -50.1715   -2.0108   15.9460 C   0  0  0  0  0  0
  -49.4082   -5.6393   18.7198 C   0  0  0  0  0  0
  -50.9073   -1.5227   17.0432 C   0  0  0  0  0  0
  -54.7982   -8.2596   15.5766 C   0  0  0  0  0  0
  -49.3994   -1.2358   14.9941 C   0  0  0  0  0  0
  -48.0244   -1.0629   15.0813 C   0  0  0  0  0  0
  -47.3985   -0.2892   14.1272 C   0  0  0  0  0  0
  -46.9566   -1.4923   15.9348 C   0  0  0  0  0  0
  -49.3697    0.0721   13.1139 C   0  0  0  0  0  0
  -45.8332   -0.9666   15.4536 C   0  0  0  0  0  0
  -45.4704    0.2325   13.8437 H   0  0  0  0  0  0
  1  2  2  0  0  0
  1  3  2  0  0  0
  1  4  1  0  0  0
  1 15  1  0  0  0
  4 12  1  0  0  0
  4 13  1  0  0  0
  5  6  1  0  0  0
  5 11  1  0  0  0
  5 16  1  0  0  0
  6 19  2  0  0  0
  7 18  3  0  0  0
  8 21  1  0  0  0
  8 25  2  0  0  0
  9 23  1  0  0  0
  9 26  1  0  0  0
  9 27  1  0  0  0
 10 23  1  0  0  0
 10 25  1  0  0  0
 11 12  1  0  0  0
 11 13  1  0  0  0
 11 14  1  0  0  0
 14 18  1  0  0  0
 15 20  1  0  0  0
 16 17  2  0  0  0
 17 19  1  0  0  0
 21 17  1  0  0  0
 21 22  1  0  0  0
 22 23  2  0  0  0
 22 24  1  0  0  0
 24 26  2  0  0  0
M  END
>  <CHROM.0>
175.83435266,54.01535881,-71.95484488

>  <CHROM.1>
86.11755929,172.43212505,51.07518435,-56.11385098,98.92027807,-50.86193518
-3.57543147,15.92200069,2.52388698,0.47770489,2.29980875

>  <HEADER>
                                                                          

>  <MASTER>
        0    0    0    0    0    0    0    0   43    0   43    0          

>  <Name>
Baricitinib.pdb

>  <RI>
-1.14841e+09

>  <Rbt.Current_Directory>
/root/miniconda3/envs/rdock/share/rxdock-2013.1.1_148c5bd1-0/data/ligands/prepped_ligands/Baricitinib

>  <Rbt.Executable>
rbdock/0.1.0

>  <Rbt.Library>
librxdock.so/0.1.0

>  <Rbt.Parameter_File>
/root/miniconda3/envs/rdock/share/rxdock-2013.1.1_148c5bd1-0/data/scripts/dock.prm

>  <Rbt.Receptor>
def.prm

>  <SCORE>
-18.5006

>  <SCORE.INTER>
-16.2841

>  <SCORE.INTER.CONST>
1

>  <SCORE.INTER.POLAR>
-1.91567

>  <SCORE.INTER.REPUL>
0.0714746

>  <SCORE.INTER.ROT>
5

>  <SCORE.INTER.VDW>
-20.5282

>  <SCORE.INTER.norm>
-0.626313

>  <SCORE.INTRA>
-1.72711

>  <SCORE.INTRA.DIHEDRAL>
-2.35586

>  <SCORE.INTRA.DIHEDRAL.0>
6.89936

>  <SCORE.INTRA.POLAR>
0

>  <SCORE.INTRA.POLAR.0>
0

>  <SCORE.INTRA.REPUL>
0

>  <SCORE.INTRA.REPUL.0>
0

>  <SCORE.INTRA.VDW>
-0.549178

>  <SCORE.INTRA.VDW.0>
-2.33692

>  <SCORE.INTRA.norm>
-0.0664272

>  <SCORE.RESTR>
0.00188718

>  <SCORE.RESTR.CAVITY>
0.00188718

>  <SCORE.RESTR.norm>
7.2584e-05

>  <SCORE.SYSTEM>
-0.491202

>  <SCORE.SYSTEM.CONST>
0

>  <SCORE.SYSTEM.DIHEDRAL>
0.57158

>  <SCORE.SYSTEM.VDW>
-0.776992

>  <SCORE.SYSTEM.norm>
-0.0188924

>  <SCORE.heavy>
26

>  <SCORE.norm>
-0.71156

>  <TITLE>
    44205240_D                                                            

$$$$
Baricitinib.pdb
  RxDock  02242110273D
librxdock.so/0.1.0
 27 30  0  0  0  0  0  0  0  0999 V2000
  -53.3658   -4.2960   15.9411 S   0  0  0  0  0  0
  -54.6161   -4.2980   16.6271 O   0  0  0  0  0  0
  -53.3472   -4.4030   14.5183 O   0  0  0  0  0  0
  -52.5313   -5.5523   16.5141 N   0  0  0  0  0  0
  -49.8255   -4.8758   17.4680 N   0  0  0  0  0  0
  -49.9201   -4.0003   18.4914 N   0  0  0  0  0  0
  -49.3973   -7.4398   20.1539 N   0  0  0  0  0  0
  -45.7658   -3.0288   17.6608 N   0  0  0  0  0  0
  -45.7126   -0.3014   14.6355 N   0  0  0  0  0  0
  -44.4814   -1.4722   16.3107 N   0  0  0  0  0  0
  -50.7394   -6.0101   17.2461 C   0  0  0  0  0  0
  -52.0996   -5.6587   17.9017 C   0  0  0  0  0  0
  -51.3548   -6.0607   15.8223 C   0  0  0  0  0  0
  -50.2995   -7.4207   17.7123 C   0  0  0  0  0  0
  -52.4520   -2.8091   16.4265 C   0  0  0  0  0  0
  -48.7111   -4.5014   16.7955 C   0  0  0  0  0  0
  -48.0887   -3.4339   17.3407 C   0  0  0  0  0  0
  -49.7905   -7.4314   19.0893 C   0  0  0  0  0  0
  -48.9244   -3.1582   18.4402 C   0  0  0  0  0  0
  -51.2464   -2.6110   15.4954 C   0  0  0  0  0  0
  -46.8810   -2.7278   16.9591 C   0  0  0  0  0  0
  -46.8308   -1.7910   15.9353 C   0  0  0  0  0  0
  -45.6208   -1.1953   15.6496 C   0  0  0  0  0  0
  -47.7409   -1.1914   15.0052 C   0  0  0  0  0  0
  -44.6403   -2.3816   17.2849 C   0  0  0  0  0  0
  -47.0414   -0.3310   14.2700 C   0  0  0  0  0  0
  -45.0691    0.1894   14.2901 H   0  0  0  0  0  0
  1  2  2  0  0  0
  1  3  2  0  0  0
  1  4  1  0  0  0
  1 15  1  0  0  0
  4 12  1  0  0  0
  4 13  1  0  0  0
  5  6  1  0  0  0
  5 11  1  0  0  0
  5 16  1  0  0  0
  6 19  2  0  0  0
  7 18  3  0  0  0
  8 21  1  0  0  0
  8 25  2  0  0  0
  9 23  1  0  0  0
  9 26  1  0  0  0
  9 27  1  0  0  0
 10 23  1  0  0  0
 10 25  1  0  0  0
 11 12  1  0  0  0
 11 13  1  0  0  0
 11 14  1  0  0  0
 14 18  1  0  0  0
 15 20  1  0  0  0
 16 17  2  0  0  0
 17 19  1  0  0  0
 21 17  1  0  0  0
 21 22  1  0  0  0
 22 23  2  0  0  0
 22 24  1  0  0  0
 24 26  2  0  0  0
M  END
>  <CHROM.0>
-176.34317784,62.19556288,141.67339524

>  <CHROM.1>
-63.91887555,-167.89730096,25.94984083,48.47274006,-100.36747115,-49.58805364
-3.81841045,16.69198734,2.68765765,0.25828409,2.46115780

>  <HEADER>
                                                                          

>  <MASTER>
        0    0    0    0    0    0    0    0   43    0   43    0          

>  <Name>
Baricitinib.pdb

>  <RI>
-1.14841e+09

>  <Rbt.Current_Directory>
/root/miniconda3/envs/rdock/share/rxdock-2013.1.1_148c5bd1-0/data/ligands/prepped_ligands/Baricitinib

>  <Rbt.Executable>
rbdock/0.1.0

>  <Rbt.Library>
librxdock.so/0.1.0

>  <Rbt.Parameter_File>
/root/miniconda3/envs/rdock/share/rxdock-2013.1.1_148c5bd1-0/data/scripts/dock.prm

>  <Rbt.Receptor>
def.prm

>  <SCORE>
-13.6518

>  <SCORE.INTER>
-12.5758

>  <SCORE.INTER.CONST>
1

>  <SCORE.INTER.POLAR>
-1.3715

>  <SCORE.INTER.REPUL>
0

>  <SCORE.INTER.ROT>
5

>  <SCORE.INTER.VDW>
-18.3127

>  <SCORE.INTER.norm>
-0.483686

>  <SCORE.INTRA>
-1.75984

>  <SCORE.INTRA.DIHEDRAL>
-1.74595

>  <SCORE.INTRA.DIHEDRAL.0>
6.89936

>  <SCORE.INTRA.POLAR>
0

>  <SCORE.INTRA.POLAR.0>
0

>  <SCORE.INTRA.REPUL>
0

>  <SCORE.INTRA.REPUL.0>
0

>  <SCORE.INTRA.VDW>
-0.886865

>  <SCORE.INTRA.VDW.0>
-2.33692

>  <SCORE.INTRA.norm>
-0.0676862

>  <SCORE.RESTR>
0

>  <SCORE.RESTR.CAVITY>
0

>  <SCORE.RESTR.norm>
0

>  <SCORE.SYSTEM>
0.683828

>  <SCORE.SYSTEM.CONST>
0

>  <SCORE.SYSTEM.DIHEDRAL>
2.62827

>  <SCORE.SYSTEM.VDW>
-0.630306

>  <SCORE.SYSTEM.norm>
0.0263011

>  <SCORE.heavy>
26

>  <SCORE.norm>
-0.525071

>  <TITLE>
    44205240_D                                                            

$$$$
Baricitinib.pdb
  RxDock  02242110273D
librxdock.so/0.1.0
 27 30  0  0  0  0  0  0  0  0999 V2000
  -44.9586   -1.4971   15.7411 S   0  0  0  0  0  0
  -44.0983   -0.3664   15.8645 O   0  0  0  0  0  0
  -44.7598   -2.4148   14.6666 O   0  0  0  0  0  0
  -46.4551   -0.9144   15.5858 N   0  0  0  0  0  0
  -48.5825   -2.9096   16.0127 N   0  0  0  0  0  0
  -47.6119   -3.7772   16.3708 N   0  0  0  0  0  0
  -50.9990   -1.2477   13.3382 N   0  0  0  0  0  0
  -49.9832   -7.0279   17.4960 N   0  0  0  0  0  0
  -53.9512   -6.7143   16.6297 N   0  0  0  0  0  0
  -52.1951   -8.0265   17.5718 N   0  0  0  0  0  0
  -48.3536   -1.5062   15.6264 C   0  0  0  0  0  0
  -47.4133   -0.8708   16.6826 C   0  0  0  0  0  0
  -47.3178   -1.3224   14.4855 C   0  0  0  0  0  0
  -49.5808   -0.5836   15.4175 C   0  0  0  0  0  0
  -44.9244   -2.4123   17.3040 C   0  0  0  0  0  0
  -49.7367   -3.6024   16.1614 C   0  0  0  0  0  0
  -49.5512   -4.8664   16.5997 C   0  0  0  0  0  0
  -50.3805   -0.9581   14.2447 C   0  0  0  0  0  0
  -48.1486   -4.9153   16.7173 C   0  0  0  0  0  0
  -43.4731   -2.5788   17.7789 C   0  0  0  0  0  0
  -50.4934   -5.9262   16.9023 C   0  0  0  0  0  0
  -51.8503   -5.8511   16.6171 C   0  0  0  0  0  0
  -52.6544   -6.9150   16.9671 C   0  0  0  0  0  0
  -52.7520   -4.9221   16.0032 C   0  0  0  0  0  0
  -50.8717   -8.0021   17.7936 C   0  0  0  0  0  0
  -53.9636   -5.4707   16.0351 C   0  0  0  0  0  0
  -54.6316   -7.2571   16.7589 H   0  0  0  0  0  0
  1  2  2  0  0  0
  1  3  2  0  0  0
  1  4  1  0  0  0
  1 15  1  0  0  0
  4 12  1  0  0  0
  4 13  1  0  0  0
  5  6  1  0  0  0
  5 11  1  0  0  0
  5 16  1  0  0  0
  6 19  2  0  0  0
  7 18  3  0  0  0
  8 21  1  0  0  0
  8 25  2  0  0  0
  9 23  1  0  0  0
  9 26  1  0  0  0
  9 27  1  0  0  0
 10 23  1  0  0  0
 10 25  1  0  0  0
 11 12  1  0  0  0
 11 13  1  0  0  0
 11 14  1  0  0  0
 14 18  1  0  0  0
 15 20  1  0  0  0
 16 17  2  0  0  0
 17 19  1  0  0  0
 21 17  1  0  0  0
 21 22  1  0  0  0
 22 23  2  0  0  0
 22 24  1  0  0  0
 24 26  2  0  0  0
M  END
>  <CHROM.0>
-59.75552588,-63.26062211,53.09903281

>  <CHROM.1>
-101.02910646,-46.23996207,-47.58276678,-67.94326150,-171.42336559,-48.72118541
-3.51514982,16.15018674,-0.59728766,0.22851985,2.64626756

>  <HEADER>
                                                                          

>  <MASTER>
        0    0    0    0    0    0    0    0   43    0   43    0          

>  <Name>
Baricitinib.pdb

>  <RI>
-1.14841e+09

>  <Rbt.Current_Directory>
/root/miniconda3/envs/rdock/share/rxdock-2013.1.1_148c5bd1-0/data/ligands/prepped_ligands/Baricitinib

>  <Rbt.Executable>
rbdock/0.1.0

>  <Rbt.Library>
librxdock.so/0.1.0

>  <Rbt.Parameter_File>
/root/miniconda3/envs/rdock/share/rxdock-2013.1.1_148c5bd1-0/data/scripts/dock.prm

>  <Rbt.Receptor>
def.prm

>  <SCORE>
-14.7841

>  <SCORE.INTER>
-14.711

>  <SCORE.INTER.CONST>
1

>  <SCORE.INTER.POLAR>
-0.824621

>  <SCORE.INTER.REPUL>
0.0274698

>  <SCORE.INTER.ROT>
5

>  <SCORE.INTER.VDW>
-22.4447

>  <SCORE.INTER.norm>
-0.565808

>  <SCORE.INTRA>
0.948784

>  <SCORE.INTRA.DIHEDRAL>
-0.0916489

>  <SCORE.INTRA.DIHEDRAL.0>
6.89936

>  <SCORE.INTRA.POLAR>
0

>  <SCORE.INTRA.POLAR.0>
0

>  <SCORE.INTRA.REPUL>
0

>  <SCORE.INTRA.REPUL.0>
0

>  <SCORE.INTRA.VDW>
0.994608

>  <SCORE.INTRA.VDW.0>
-2.33692

>  <SCORE.INTRA.norm>
0.0364917

>  <SCORE.RESTR>
0

>  <SCORE.RESTR.CAVITY>
0

>  <SCORE.RESTR.norm>
0

>  <SCORE.SYSTEM>
-1.02186

>  <SCORE.SYSTEM.CONST>
0

>  <SCORE.SYSTEM.DIHEDRAL>
0.174238

>  <SCORE.SYSTEM.VDW>
-1.10898

>  <SCORE.SYSTEM.norm>
-0.0393024

>  <SCORE.heavy>
26

>  <SCORE.norm>
-0.568619

>  <TITLE>
    44205240_D                                                            

$$$$
Baricitinib.pdb
  RxDock  02242110273D
librxdock.so/0.1.0
 27 30  0  0  0  0  0  0  0  0999 V2000
  -49.0069   -0.2558   14.0170 S   0  0  0  0  0  0
  -47.9384    0.2818   13.2405 O   0  0  0  0  0  0
  -50.2658    0.4160   14.0366 O   0  0  0  0  0  0
  -48.4807   -0.3047   15.5414 N   0  0  0  0  0  0
  -48.7963   -2.9280   16.8484 N   0  0  0  0  0  0
  -48.0160   -3.8887   16.3088 N   0  0  0  0  0  0
  -49.2370   -1.9592   20.4686 N   0  0  0  0  0  0
  -50.5752   -7.0430   17.5569 N   0  0  0  0  0  0
  -54.4167   -6.4997   16.3149 N   0  0  0  0  0  0
  -52.8242   -7.9369   17.3599 N   0  0  0  0  0  0
  -48.3687   -1.5399   17.0964 C   0  0  0  0  0  0
  -47.3718   -1.1434   15.9773 C   0  0  0  0  0  0
  -49.4023   -0.4689   16.6572 C   0  0  0  0  0  0
  -47.7534   -1.1870   18.4740 C   0  0  0  0  0  0
  -49.2708   -1.9748   13.5102 C   0  0  0  0  0  0
  -49.9610   -3.5538   17.1416 C   0  0  0  0  0  0
  -49.9612   -4.8655   16.8197 C   0  0  0  0  0  0
  -48.5903   -1.6224   19.5989 C   0  0  0  0  0  0
  -48.6676   -5.0192   16.2845 C   0  0  0  0  0  0
  -50.5848   -2.4990   14.1087 C   0  0  0  0  0  0
  -50.9742   -5.8918   16.9721 C   0  0  0  0  0  0
  -52.2904   -5.7386   16.5567 C   0  0  0  0  0  0
  -53.1710   -6.7777   16.7697 C   0  0  0  0  0  0
  -53.0837   -4.7399   15.9038 C   0  0  0  0  0  0
  -51.5306   -7.9863   17.7139 C   0  0  0  0  0  0
  -54.3147   -5.2307   15.7863 C   0  0  0  0  0  0
  -55.1294   -7.0147   16.3475 H   0  0  0  0  0  0
  1  2  2  0  0  0
  1  3  2  0  0  0
  1  4  1  0  0  0
  1 15  1  0  0  0
  4 12  1  0  0  0
  4 13  1  0  0  0
  5  6  1  0  0  0
  5 11  1  0  0  0
  5 16  1  0  0  0
  6 19  2  0  0  0
  7 18  3  0  0  0
  8 21  1  0  0  0
  8 25  2  0  0  0
  9 23  1  0  0  0
  9 26  1  0  0  0
  9 27  1  0  0  0
 10 23  1  0  0  0
 10 25  1  0  0  0
 11 12  1  0  0  0
 11 13  1  0  0  0
 11 14  1  0  0  0
 14 18  1  0  0  0
 15 20  1  0  0  0
 16 17  2  0  0  0
 17 19  1  0  0  0
 21 17  1  0  0  0
 21 22  1  0  0  0
 22 23  2  0  0  0
 22 24  1  0  0  0
 24 26  2  0  0  0
M  END
>  <CHROM.0>
56.77314940,-177.25710695,63.24055356

>  <CHROM.1>
-64.55571576,-168.49968412,33.48063929,-51.69842560,-129.92007240,-50.10456222
-3.23700463,16.24372142,0.75176847,-0.76747046,-0.91237038

>  <HEADER>
                                                                          

>  <MASTER>
        0    0    0    0    0    0    0    0   43    0   43    0          

>  <Name>
Baricitinib.pdb

>  <RI>
-1.14841e+09

>  <Rbt.Current_Directory>
/root/miniconda3/envs/rdock/share/rxdock-2013.1.1_148c5bd1-0/data/ligands/prepped_ligands/Baricitinib

>  <Rbt.Executable>
rbdock/0.1.0

>  <Rbt.Library>
librxdock.so/0.1.0

>  <Rbt.Parameter_File>
/root/miniconda3/envs/rdock/share/rxdock-2013.1.1_148c5bd1-0/data/scripts/dock.prm

>  <Rbt.Receptor>
def.prm

>  <SCORE>
-13.8492

>  <SCORE.INTER>
-11.3743

>  <SCORE.INTER.CONST>
1

>  <SCORE.INTER.POLAR>
-0.471152

>  <SCORE.INTER.REPUL>
0.0160011

>  <SCORE.INTER.ROT>
5

>  <SCORE.INTER.VDW>
-20.2524

>  <SCORE.INTER.norm>
-0.437474

>  <SCORE.INTRA>
-1.47218

>  <SCORE.INTRA.DIHEDRAL>
-1.4727

>  <SCORE.INTRA.DIHEDRAL.0>
6.89936

>  <SCORE.INTRA.POLAR>
0

>  <SCORE.INTRA.POLAR.0>
0

>  <SCORE.INTRA.REPUL>
0

>  <SCORE.INTRA.REPUL.0>
0

>  <SCORE.INTRA.VDW>
-0.735828

>  <SCORE.INTRA.VDW.0>
-2.33692

>  <SCORE.INTRA.norm>
-0.0566223

>  <SCORE.RESTR>
0

>  <SCORE.RESTR.CAVITY>
0

>  <SCORE.RESTR.norm>
0

>  <SCORE.SYSTEM>
-1.00269

>  <SCORE.SYSTEM.CONST>
0

>  <SCORE.SYSTEM.DIHEDRAL>
0.0884841

>  <SCORE.SYSTEM.POLAR>
-0.00799413

>  <SCORE.SYSTEM.VDW>
-1.01975

>  <SCORE.SYSTEM.norm>
-0.038565

>  <SCORE.heavy>
26

>  <SCORE.norm>
-0.532662

>  <TITLE>
    44205240_D                                                            

$$$$
