Torvoside_H
  PyMOL2.4          3D                             0

137144  0  0  0  0  0  0  0  0999 V2000
   29.3993    2.5692   -1.2088 C   0  0  0  0  0  0  0  0  0  0  0  0
   30.7595    2.0715   -0.7751 C   0  0  0  0  0  0  0  0  0  0  0  0
   30.8925    0.8461    0.1109 C   0  0  0  0  0  0  0  0  0  0  0  0
   28.2743    2.0591   -0.3146 C   0  0  0  0  0  0  0  0  0  0  0  0
   28.2686    0.5049   -0.1849 C   0  0  0  0  0  0  0  0  0  0  0  0
   29.6491    0.0314    0.3858 C   0  0  0  0  0  0  0  0  0  0  0  0
   29.6797   -1.4841    0.1197 C   0  0  0  0  0  0  0  0  0  0  0  0
   28.8946   -2.1435    1.3253 C   0  0  0  0  0  0  0  0  0  0  0  0
   27.2304   -0.0583    0.8280 C   0  0  0  0  0  0  0  0  0  0  0  0
   27.3955   -1.6554    1.1046 C   0  0  0  0  0  0  0  0  0  0  0  0
   24.6460   -0.4437    0.7097 C   0  0  0  0  0  0  0  0  0  0  0  0
   25.8270    0.4336    0.4182 C   0  0  0  0  0  0  0  0  0  0  0  0
   24.9346   -1.9293    0.9721 C   0  0  0  0  0  0  0  0  0  0  0  0
   26.1755   -2.0646    1.9276 C   0  0  0  0  0  0  0  0  0  0  0  0
   25.8905   -3.3983    2.6383 C   0  0  0  0  0  0  0  0  0  0  0  0
   23.8301   -2.4377    1.8776 C   0  0  0  0  0  0  0  0  0  0  0  0
   24.4576   -3.0495    3.1402 C   0  0  0  0  0  0  0  0  0  0  0  0
   23.4814   -4.0363    3.5973 O   0  0  0  0  0  0  0  0  0  0  0  0
   22.2322   -3.6511    2.8977 C   0  0  0  0  0  0  0  0  0  0  0  0
   22.8707   -3.5378    1.5117 C   0  0  0  0  0  0  0  0  0  0  0  0
   31.7777    2.6656   -1.1398 O   0  0  0  0  0  0  0  0  0  0  0  0
   27.8469   -0.0162   -1.5813 C   0  0  0  0  0  0  0  0  0  0  0  0
   29.5419    0.1669    1.4679 H   0  0  0  0  0  0  0  0  0  0  0  0
   30.6971   -2.0693   -0.7530 O   0  0  0  0  0  0  0  0  0  0  0  0
   27.4198    0.4316    1.7954 H   0  0  0  0  0  0  0  0  0  0  0  0
   27.2063   -2.1745    0.1741 H   0  0  0  0  0  0  0  0  0  0  0  0
   26.0753   -1.2959    2.7223 H   0  0  0  0  0  0  0  0  0  0  0  0
   24.9879   -2.7060   -0.3765 C   0  0  0  0  0  0  0  0  0  0  0  0
   24.5402   -2.2932    3.9233 H   0  0  0  0  0  0  0  0  0  0  0  0
   23.2396   -1.5602    2.1646 H   0  0  0  0  0  0  0  0  0  0  0  0
   22.0474   -3.2876    0.2949 C   0  0  0  0  0  0  0  0  0  0  0  0
   21.0037   -4.5660    2.9738 C   0  0  0  0  0  0  0  0  0  0  0  0
   21.7776   -2.4046    3.4601 O   0  0  0  0  0  0  0  0  0  0  0  0
   19.6177   -3.8533    2.6238 C   0  0  0  0  0  0  0  0  0  0  0  0
   18.8202   -4.0610    1.3064 C   0  0  0  0  0  0  0  0  0  0  0  0
   19.0514   -2.6823    0.5038 C   0  0  0  0  0  0  0  0  0  0  0  0
   18.9644   -5.6325    1.1971 C   0  0  0  0  0  0  0  0  0  0  0  0
   17.9265   -2.2259   -0.2667 O   0  0  0  0  0  0  0  0  0  0  0  0
   16.6826   -2.1398    0.4466 C   0  0  0  0  0  0  0  0  0  0  0  0
   30.1759   -2.3956   -2.1137 C   0  0  0  0  0  0  0  0  0  0  0  0
   30.5765   -3.6566   -2.7021 O   0  0  0  0  0  0  0  0  0  0  0  0
   29.5329   -4.0650   -3.6422 C   0  0  0  0  0  0  0  0  0  0  0  0
   29.1658   -2.9742   -4.7218 C   0  0  0  0  0  0  0  0  0  0  0  0
   29.0354   -1.5447   -4.1751 C   0  0  0  0  0  0  0  0  0  0  0  0
   30.3424   -1.3877   -3.3162 C   0  0  0  0  0  0  0  0  0  0  0  0
   16.8826   -1.8096    1.8130 O   0  0  0  0  0  0  0  0  0  0  0  0
   15.6894   -1.8421    2.5802 C   0  0  0  0  0  0  0  0  0  0  0  0
   15.2479   -3.3005    2.6749 C   0  0  0  0  0  0  0  0  0  0  0  0
   14.9776   -3.8983    1.2904 C   0  0  0  0  0  0  0  0  0  0  0  0
   15.9324   -3.4465    0.1885 C   0  0  0  0  0  0  0  0  0  0  0  0
   30.5221   -0.0588   -2.9013 O   0  0  0  0  0  0  0  0  0  0  0  0
   28.8427   -0.5345   -5.2051 O   0  0  0  0  0  0  0  0  0  0  0  0
   27.9458   -3.3268   -5.3606 O   0  0  0  0  0  0  0  0  0  0  0  0
   29.9733   -5.3776   -4.2859 C   0  0  0  0  0  0  0  0  0  0  0  0
   27.8860    0.5274   -4.8462 C   0  0  0  0  0  0  0  0  0  0  0  0
   26.5085    0.1675   -5.0252 O   0  0  0  0  0  0  0  0  0  0  0  0
   25.5379    1.1883   -4.6975 C   0  0  0  0  0  0  0  0  0  0  0  0
   26.1013    2.5859   -4.4227 C   0  0  0  0  0  0  0  0  0  0  0  0
   27.2997    2.9768   -5.2901 C   0  0  0  0  0  0  0  0  0  0  0  0
   28.2386    1.8031   -5.6028 C   0  0  0  0  0  0  0  0  0  0  0  0
   29.5863    2.1549   -5.2810 O   0  0  0  0  0  0  0  0  0  0  0  0
   27.9920    3.9969   -4.5660 O   0  0  0  0  0  0  0  0  0  0  0  0
   25.0440    3.5360   -4.6306 O   0  0  0  0  0  0  0  0  0  0  0  0
   24.6530    0.7357   -3.5157 C   0  0  0  0  0  0  0  0  0  0  0  0
   15.1704   -3.2678   -1.0172 O   0  0  0  0  0  0  0  0  0  0  0  0
   15.0792   -5.3320    1.3981 O   0  0  0  0  0  0  0  0  0  0  0  0
   14.0259   -3.3841    3.4102 O   0  0  0  0  0  0  0  0  0  0  0  0
   16.0251   -1.2188    3.9414 C   0  0  0  0  0  0  0  0  0  0  0  0
   15.6087    0.1428    3.9610 O   0  0  0  0  0  0  0  0  0  0  0  0
   29.3895    3.6609   -1.2090 H   0  0  0  0  0  0  0  0  0  0  0  0
   29.2323    2.2817   -2.2615 H   0  0  0  0  0  0  0  0  0  0  0  0
   28.3451    2.4878    0.6812 H   0  0  0  0  0  0  0  0  0  0  0  0
   27.3276    2.3838   -0.7459 H   0  0  0  0  0  0  0  0  0  0  0  0
   31.7040    0.2017   -0.2406 H   0  0  0  0  0  0  0  0  0  0  0  0
   31.2387    1.2336    1.0908 H   0  0  0  0  0  0  0  0  0  0  0  0
   26.9800    0.4917   -2.0005 H   0  0  0  0  0  0  0  0  0  0  0  0
   27.5862   -1.0818   -1.6956 H   0  0  0  0  0  0  0  0  0  0  0  0
   28.6798    0.2534   -2.2098 H   0  0  0  0  0  0  0  0  0  0  0  0
   28.8995   -1.5737   -0.5704 H   0  0  0  0  0  0  0  0  0  0  0  0
   28.9740   -3.2407    1.3462 H   0  0  0  0  0  0  0  0  0  0  0  0
   29.2988   -1.8046    2.3028 H   0  0  0  0  0  0  0  0  0  0  0  0
   25.6707    1.3896    0.9265 H   0  0  0  0  0  0  0  0  0  0  0  0
   25.7339    0.7171   -0.6277 H   0  0  0  0  0  0  0  0  0  0  0  0
   23.9172   -0.3530   -0.1129 H   0  0  0  0  0  0  0  0  0  0  0  0
   24.1823    0.0117    1.5888 H   0  0  0  0  0  0  0  0  0  0  0  0
   25.7931   -2.4145   -1.0530 H   0  0  0  0  0  0  0  0  0  0  0  0
   25.0661   -3.7880   -0.2082 H   0  0  0  0  0  0  0  0  0  0  0  0
   24.1032   -2.5387   -0.9844 H   0  0  0  0  0  0  0  0  0  0  0  0
   25.9038   -4.2704    1.9689 H   0  0  0  0  0  0  0  0  0  0  0  0
   26.5878   -3.5818    3.4601 H   0  0  0  0  0  0  0  0  0  0  0  0
   23.4052   -4.4776    1.3161 H   0  0  0  0  0  0  0  0  0  0  0  0
   21.1916   -5.4665    2.3925 H   0  0  0  0  0  0  0  0  0  0  0  0
   20.9174   -4.9100    4.0110 H   0  0  0  0  0  0  0  0  0  0  0  0
   22.0520   -2.4143    4.3932 H   0  0  0  0  0  0  0  0  0  0  0  0
   21.2138   -3.9755    0.2821 H   0  0  0  0  0  0  0  0  0  0  0  0
   21.7621   -2.2372    0.2113 H   0  0  0  0  0  0  0  0  0  0  0  0
   22.5841   -3.5806   -0.6068 H   0  0  0  0  0  0  0  0  0  0  0  0
   29.1130   -2.5422   -1.9820 H   0  0  0  0  0  0  0  0  0  0  0  0
   18.9237   -4.1796    3.4272 H   0  0  0  0  0  0  0  0  0  0  0  0
   19.6921   -2.7838    2.8477 H   0  0  0  0  0  0  0  0  0  0  0  0
   18.7906   -4.3164    0.2394 H   0  0  0  0  0  0  0  0  0  0  0  0
   19.3943   -1.8431    1.1180 H   0  0  0  0  0  0  0  0  0  0  0  0
   19.8022   -2.7928   -0.3086 H   0  0  0  0  0  0  0  0  0  0  0  0
   18.7444   -6.1102    2.1529 H   0  0  0  0  0  0  0  0  0  0  0  0
   18.2471   -6.0667    0.4878 H   0  0  0  0  0  0  0  0  0  0  0  0
   19.9778   -5.9409    0.8536 H   0  0  0  0  0  0  0  0  0  0  0  0
   16.1386   -1.3032   -0.0096 H   0  0  0  0  0  0  0  0  0  0  0  0
   16.6217   -4.2565   -0.0554 H   0  0  0  0  0  0  0  0  0  0  0  0
   31.2420   -1.6478   -3.8937 H   0  0  0  0  0  0  0  0  0  0  0  0
   28.6507   -4.2899   -3.0249 H   0  0  0  0  0  0  0  0  0  0  0  0
   29.9443   -2.9349   -5.4821 H   0  0  0  0  0  0  0  0  0  0  0  0
   30.9695   -5.2770   -4.7330 H   0  0  0  0  0  0  0  0  0  0  0  0
   30.0283   -6.1708   -3.5282 H   0  0  0  0  0  0  0  0  0  0  0  0
   29.2840   -5.7346   -5.0695 H   0  0  0  0  0  0  0  0  0  0  0  0
   28.1079   -1.5153   -3.5832 H   0  0  0  0  0  0  0  0  0  0  0  0
   27.2337   -3.2931   -4.7033 H   0  0  0  0  0  0  0  0  0  0  0  0
   31.1776   -0.1207   -2.2160 H   0  0  0  0  0  0  0  0  0  0  0  0
   14.9138   -1.2502    2.0815 H   0  0  0  0  0  0  0  0  0  0  0  0
   16.0027   -3.8885    3.2088 H   0  0  0  0  0  0  0  0  0  0  0  0
   15.5442   -1.7374    4.7757 H   0  0  0  0  0  0  0  0  0  0  0  0
   17.1034   -1.2329    4.1414 H   0  0  0  0  0  0  0  0  0  0  0  0
   13.9404   -3.7130    0.9927 H   0  0  0  0  0  0  0  0  0  0  0  0
   14.2298   -3.3431    4.3572 H   0  0  0  0  0  0  0  0  0  0  0  0
   15.9923   -5.5480    1.6384 H   0  0  0  0  0  0  0  0  0  0  0  0
   15.7137   -3.5855   -1.7644 H   0  0  0  0  0  0  0  0  0  0  0  0
   28.0290    0.7781   -3.8135 H   0  0  0  0  0  0  0  0  0  0  0  0
   28.1915    1.5860   -6.6758 H   0  0  0  0  0  0  0  0  0  0  0  0
   24.8518    1.2602   -5.5506 H   0  0  0  0  0  0  0  0  0  0  0  0
   26.3733    2.6879   -3.3657 H   0  0  0  0  0  0  0  0  0  0  0  0
   24.9966   -0.2003   -3.0740 H   0  0  0  0  0  0  0  0  0  0  0  0
   24.6155    1.4775   -2.7066 H   0  0  0  0  0  0  0  0  0  0  0  0
   23.6191    0.5856   -3.8440 H   0  0  0  0  0  0  0  0  0  0  0  0
   26.9500    3.4221   -6.2277 H   0  0  0  0  0  0  0  0  0  0  0  0
   25.4172    4.4267   -4.5878 H   0  0  0  0  0  0  0  0  0  0  0  0
   28.0528    4.7864   -5.1501 H   0  0  0  0  0  0  0  0  0  0  0  0
   30.1574    1.4941   -5.6937 H   0  0  0  0  0  0  0  0  0  0  0  0
   14.6393    0.1469    3.9479 H   0  0  0  0  0  0  0  0  0  0  0  0
  1  2  1  0  0  0  0
  1  4  1  0  0  0  0
  1 70  1  0  0  0  0
  1 71  1  0  0  0  0
  2  3  1  0  0  0  0
  2 21  2  0  0  0  0
  3  6  1  0  0  0  0
  3 74  1  0  0  0  0
  3 75  1  0  0  0  0
  4  5  1  0  0  0  0
  4 72  1  0  0  0  0
  4 73  1  0  0  0  0
  5  6  1  0  0  0  0
  5  9  1  0  0  0  0
  5 22  1  0  0  0  0
  6  7  1  0  0  0  0
  6 23  1  0  0  0  0
  7  8  1  0  0  0  0
  7 24  1  0  0  0  0
  7 79  1  0  0  0  0
  8 10  1  0  0  0  0
  8 80  1  0  0  0  0
  8 81  1  0  0  0  0
  9 10  1  0  0  0  0
  9 12  1  0  0  0  0
  9 25  1  0  0  0  0
 10 14  1  0  0  0  0
 10 26  1  0  0  0  0
 11 12  1  0  0  0  0
 11 13  1  0  0  0  0
 11 84  1  0  0  0  0
 11 85  1  0  0  0  0
 12 82  1  0  0  0  0
 12 83  1  0  0  0  0
 13 14  1  0  0  0  0
 13 16  1  0  0  0  0
 13 28  1  0  0  0  0
 14 15  1  0  0  0  0
 14 27  1  0  0  0  0
 15 17  1  0  0  0  0
 15 89  1  0  0  0  0
 15 90  1  0  0  0  0
 16 17  1  0  0  0  0
 16 20  1  0  0  0  0
 16 30  1  0  0  0  0
 17 18  1  0  0  0  0
 17 29  1  0  0  0  0
 18 19  1  0  0  0  0
 19 20  1  0  0  0  0
 19 32  1  0  0  0  0
 19 33  1  0  0  0  0
 20 31  1  0  0  0  0
 20 91  1  0  0  0  0
 22 76  1  0  0  0  0
 22 77  1  0  0  0  0
 22 78  1  0  0  0  0
 28 86  1  0  0  0  0
 28 87  1  0  0  0  0
 28 88  1  0  0  0  0
 31 95  1  0  0  0  0
 31 96  1  0  0  0  0
 31 97  1  0  0  0  0
 32 34  1  0  0  0  0
 32 92  1  0  0  0  0
 32 93  1  0  0  0  0
 33 94  1  0  0  0  0
 34 35  1  0  0  0  0
 34 99  1  0  0  0  0
 34100  1  0  0  0  0
 35 36  1  0  0  0  0
 35 37  1  0  0  0  0
 35101  1  0  0  0  0
 36 38  1  0  0  0  0
 36102  1  0  0  0  0
 36103  1  0  0  0  0
 37104  1  0  0  0  0
 37105  1  0  0  0  0
 37106  1  0  0  0  0
 38 39  1  0  0  0  0
 39 46  1  0  0  0  0
 39 50  1  0  0  0  0
 39107  1  0  0  0  0
 24 40  1  0  0  0  0
 40 41  1  0  0  0  0
 40 45  1  0  0  0  0
 40 98  1  0  0  0  0
 41 42  1  0  0  0  0
 42 43  1  0  0  0  0
 42 54  1  0  0  0  0
 42110  1  0  0  0  0
 43 44  1  0  0  0  0
 43 53  1  0  0  0  0
 43111  1  0  0  0  0
 44 45  1  0  0  0  0
 44 52  1  0  0  0  0
 44115  1  0  0  0  0
 45 51  1  0  0  0  0
 45109  1  0  0  0  0
 46 47  1  0  0  0  0
 47 48  1  0  0  0  0
 47 68  1  0  0  0  0
 47118  1  0  0  0  0
 48 49  1  0  0  0  0
 48 67  1  0  0  0  0
 48119  1  0  0  0  0
 49 50  1  0  0  0  0
 49 66  1  0  0  0  0
 49122  1  0  0  0  0
 50 65  1  0  0  0  0
 50108  1  0  0  0  0
 51117  1  0  0  0  0
 53116  1  0  0  0  0
 54112  1  0  0  0  0
 54113  1  0  0  0  0
 54114  1  0  0  0  0
 52 55  1  0  0  0  0
 55 56  1  0  0  0  0
 55 60  1  0  0  0  0
 55126  1  0  0  0  0
 56 57  1  0  0  0  0
 57 58  1  0  0  0  0
 57 64  1  0  0  0  0
 57128  1  0  0  0  0
 58 59  1  0  0  0  0
 58 63  1  0  0  0  0
 58129  1  0  0  0  0
 59 60  1  0  0  0  0
 59 62  1  0  0  0  0
 59133  1  0  0  0  0
 60 61  1  0  0  0  0
 60127  1  0  0  0  0
 61136  1  0  0  0  0
 62135  1  0  0  0  0
 63134  1  0  0  0  0
 64130  1  0  0  0  0
 64131  1  0  0  0  0
 64132  1  0  0  0  0
 65125  1  0  0  0  0
 66124  1  0  0  0  0
 67123  1  0  0  0  0
 68 69  1  0  0  0  0
 68120  1  0  0  0  0
 68121  1  0  0  0  0
 69137  1  0  0  0  0
M  END
>  <energy>
553.936650

>  <StdInChI>
InChI=1S/C45H74O18/c1-18(17-57-40-36(53)35(52)33(50)29(16-46)61-40)7-12-45(56)19(2)30-28(63-45)15-25-23-14-27(26-13-22(47)8-10-43(26,5)24(23)9-11-44(25,30)6)60-42-38(55)39(32(49)21(4)59-42)62-41-37(54)34(51)31(48)20(3)58-41/h18-21,23-42,46,48-56H,7-17H2,1-6H3/t18?,19-,20-,21+,23+,24-,25-,26+,27-,28-,29+,30-,31-,32+,33+,34+,35-,36+,37+,38+,39-,40+,41-,42-,43+,44-,45+/m0/s1



>  <StdInChIKey>
DPXGNIHBGKCXMA-XETBAADISA-N



>  <AuxInfo>
1/0/N:37,31,64,54,22,28,34,1,12,4,11,32,3,8,15,68,36,35,20,57,42,2,10,9,14,6,7,17,47,16,58,43,48,59,49,50,60,45,44,39,55,40,5,13,19,69,21,63,53,67,62,66,65,61,51,33,38,56,41,24,46,52,18/it:im/rA:137cCCCCCCCCCCCCCCCCCOCCOCHOHHHCHHCCOCCCCOCCOCCCCOCCCCOOOCCOCCCCOOOCOOOCOHHHHHHHHHHHHHHHHHHHHHHHHHHHHHHHHHHHHHHHHHHHHHHHHHHHHHHHHHHHHHHHHHHHH/rB:s1;s2;s1;s4;s3s5;s6;s7;s5;s8s9;;s9s11;s11;s10s13;s14;s13;s15s16;s17;s18;s16s19;d2;s5;s6;s7;s9;s10;s14;s13;s17;s16;s20;s19;s19;s32;s34;s35;s35;s36;s38;s24;s40;s41;s42;s43;s40s44;s39;s46;s47;s48;s39s49;s45;s44;s43;s42;s52;s55;s56;s57;s58;s55s59;s60;s59;s58;s57;s50;s49;s48;s47;s68;s1;s1;s4;s4;s3;s3;s22;s22;s22;s7;s8;s8;s12;s12;s11;s11;s28;s28;s28;s15;s15;s20;s32;s32;s33;s31;s31;s31;s40;s34;s34;s35;s36;s36;s37;s37;s37;s39;s50;s45;s42;s43;s54;s54;s54;s44;s53;s51;s47;s48;s68;s68;s49;s67;s66;s65;s55;s60;s57;s58;s64;s64;s64;s59;s63;s62;s61;s69;/rC:29.3993,2.5692,-1.2088;30.7595,2.0715,-.7751;30.8925,.8461,.1109;28.2743,2.0591,-.3146;28.2686,.5049,-.1849;29.6491,.0314,.3858;29.6797,-1.4841,.1197;28.8946,-2.1435,1.3253;27.2304,-.0583,.828;27.3955,-1.6554,1.1046;24.646,-.4437,.7097;25.827,.4336,.4182;24.9346,-1.9293,.9721;26.1755,-2.0646,1.9276;25.8905,-3.3983,2.6383;23.8301,-2.4377,1.8776;24.4576,-3.0495,3.1402;23.4814,-4.0363,3.5973;22.2322,-3.6511,2.8977;22.8707,-3.5378,1.5117;31.7777,2.6656,-1.1398;27.8469,-.0162,-1.5813;29.5419,.1669,1.4679;30.6971,-2.0693,-.753;27.4198,.4316,1.7954;27.2063,-2.1745,.1741;26.0753,-1.2959,2.7223;24.9879,-2.706,-.3765;24.5402,-2.2932,3.9233;23.2396,-1.5602,2.1646;22.0474,-3.2876,.2949;21.0037,-4.566,2.9738;21.7776,-2.4046,3.4601;19.6177,-3.8533,2.6238;18.8202,-4.061,1.3064;19.0514,-2.6823,.5038;18.9644,-5.6325,1.1971;17.9265,-2.2259,-.2667;16.6826,-2.1398,.4466;30.1759,-2.3956,-2.1137;30.5765,-3.6566,-2.7021;29.5329,-4.065,-3.6422;29.1658,-2.9742,-4.7218;29.0354,-1.5447,-4.1751;30.3424,-1.3877,-3.3162;16.8826,-1.8096,1.813;15.6894,-1.8421,2.5802;15.2479,-3.3005,2.6749;14.9776,-3.8983,1.2904;15.9324,-3.4465,.1885;30.5221,-.0588,-2.9013;28.8427,-.5345,-5.2051;27.9458,-3.3268,-5.3606;29.9733,-5.3776,-4.2859;27.886,.5274,-4.8462;26.5085,.1675,-5.0252;25.5379,1.1883,-4.6975;26.1013,2.5859,-4.4227;27.2997,2.9768,-5.2901;28.2386,1.8031,-5.6028;29.5863,2.1549,-5.281;27.992,3.9969,-4.566;25.044,3.536,-4.6306;24.653,.7357,-3.5157;15.1704,-3.2678,-1.0172;15.0792,-5.332,1.3981;14.0259,-3.3841,3.4102;16.0251,-1.2188,3.9414;15.6087,.1428,3.961;29.3895,3.6609,-1.209;29.2323,2.2817,-2.2615;28.3451,2.4878,.6812;27.3276,2.3838,-.7459;31.704,.2017,-.2406;31.2387,1.2336,1.0908;26.98,.4917,-2.0005;27.5862,-1.0818,-1.6956;28.6798,.2534,-2.2098;28.8995,-1.5737,-.5704;28.974,-3.2407,1.3462;29.2988,-1.8046,2.3028;25.6707,1.3896,.9265;25.7339,.7171,-.6277;23.9172,-.353,-.1129;24.1823,.0117,1.5888;25.7931,-2.4145,-1.053;25.0661,-3.788,-.2082;24.1032,-2.5387,-.9844;25.9038,-4.2704,1.9689;26.5878,-3.5818,3.4601;23.4052,-4.4776,1.3161;21.1916,-5.4665,2.3925;20.9174,-4.91,4.011;22.052,-2.4143,4.3932;21.2138,-3.9755,.2821;21.7621,-2.2372,.2113;22.5841,-3.5806,-.6068;29.113,-2.5422,-1.982;18.9237,-4.1796,3.4272;19.6921,-2.7838,2.8477;18.7906,-4.3164,.2394;19.3943,-1.8431,1.118;19.8022,-2.7928,-.3086;18.7444,-6.1102,2.1529;18.2471,-6.0667,.4878;19.9778,-5.9409,.8536;16.1386,-1.3032,-.0096;16.6217,-4.2565,-.0554;31.242,-1.6478,-3.8937;28.6507,-4.2899,-3.0249;29.9443,-2.9349,-5.4821;30.9695,-5.277,-4.733;30.0283,-6.1708,-3.5282;29.284,-5.7346,-5.0695;28.1079,-1.5153,-3.5832;27.2337,-3.2931,-4.7033;31.1776,-.1207,-2.216;14.9138,-1.2502,2.0815;16.0027,-3.8885,3.2088;15.5442,-1.7374,4.7757;17.1034,-1.2329,4.1414;13.9404,-3.713,.9927;14.2298,-3.3431,4.3572;15.9923,-5.548,1.6384;15.7137,-3.5855,-1.7644;28.029,.7781,-3.8135;28.1915,1.586,-6.6758;24.8518,1.2602,-5.5506;26.3733,2.6879,-3.3657;24.9966,-.2003,-3.074;24.6155,1.4775,-2.7066;23.6191,.5856,-3.844;26.95,3.4221,-6.2277;25.4172,4.4267,-4.5878;28.0528,4.7864,-5.1501;30.1574,1.4941,-5.6937;14.6393,.1469,3.9479;



>  <Formula>
C45 H74 O18



>  <Mw>
903.058300

>  <SMILES>
C1([H])([H])C([H])([H])[C@]2([C@@]([H])([C@@]([H])(O[C@@]3([H])[C@]([H])(O[H])[C@@]([H])(O[C@@]4([H])[C@]([H])(O[H])[C@]([H])(O[H])[C@@]([H])(O[H])[C@]([H])(C([H])([H])[H])O4)[C@]([H])(O[H])[C@@]([H])(C([H])([H])[H])O3)C([H])([H])[C@@]3([H])[C@@]4(C([H])([H])[C@]5([H])O[C@](O[H])(C([H])([H])C([H])([H])[C@]([H])(C([H])([H])[H])C([H])([H])O[C@@]6([H])[C@]([H])(O[H])[C@@]([H])(O[H])[C@]([H])(O[H])[C@@]([H])(C([H])([H])O[H])O6)[C@@]([H])(C([H])([H])[H])[C@]5([H])[C@@]4(C([H])([H])[H])C([H])([H])C([H])([H])[C@]23[H])[H])C([H])([H])C1=O)C([H])([H])[H]



>  <CSID>
29367975

$$$$
