Baicalein.pdb
  RxDock  02242101073D
librxdock.so/0.1.0
 23 25  0  0  0  0  0  0  0  0999 V2000
  -47.8742    0.6685   13.4933 O   0  0  0  0  0  0
  -48.4132   -3.6162   15.6826 O   0  0  0  0  0  0
  -45.7713   -3.5555   16.3640 O   0  0  0  0  0  0
  -44.1863   -1.4149   15.6230 O   0  0  0  0  0  0
  -50.3800   -2.3861   14.4863 O   0  0  0  0  0  0
  -48.1995   -1.4802   14.5762 C   0  0  0  0  0  0
  -47.3980   -0.4027   14.2045 C   0  0  0  0  0  0
  -49.2100    0.6732   13.1216 C   0  0  0  0  0  0
  -47.6602   -2.5449   15.3023 C   0  0  0  0  0  0
  -49.6195   -1.4749   14.1916 C   0  0  0  0  0  0
  -50.0828   -0.3011   13.4244 C   0  0  0  0  0  0
  -49.6180    1.8744   12.3648 C   0  0  0  0  0  0
  -46.0485   -0.3827   14.5589 C   0  0  0  0  0  0
  -46.3097   -2.5231   15.6546 C   0  0  0  0  0  0
  -45.5067   -1.4440   15.2835 C   0  0  0  0  0  0
  -48.6562    2.6647   11.7308 C   0  0  0  0  0  0
  -50.9669    2.2267   12.2805 C   0  0  0  0  0  0
  -49.0405    3.7994   11.0161 C   0  0  0  0  0  0
  -51.3521    3.3611   11.5656 C   0  0  0  0  0  0
  -50.3891    4.1472   10.9340 C   0  0  0  0  0  0
  -49.3517   -3.4616   15.4922 H   0  0  0  0  0  0
  -44.8335   -3.3554   16.5345 H   0  0  0  0  0  0
  -43.7875   -0.6183   15.2302 H   0  0  0  0  0  0
  1  7  1  0  0  0
  1  8  1  0  0  0
  2  9  1  0  0  0
  2 21  1  0  0  0
  3 14  1  0  0  0
  3 22  1  0  0  0
  4 15  1  0  0  0
  4 23  1  0  0  0
  5 10  2  0  0  0
  6  7  2  0  0  0
  6  9  1  0  0  0
  6 10  1  0  0  0
  7 13  1  0  0  0
  8 11  2  0  0  0
  8 12  1  0  0  0
  9 14  2  0  0  0
 10 11  1  0  0  0
 12 16  2  0  0  0
 12 17  1  0  0  0
 13 15  2  0  0  0
 14 15  1  0  0  0
 16 18  1  0  0  0
 17 19  2  0  0  0
 18 20  2  0  0  0
 19 20  1  0  0  0
M  END
>  <CHROM.0>
-176.51986791,-179.34208653,-64.38579545

>  <CHROM.1>
-7.99114014,-178.57555199,-3.48395872,19.73519546,-48.26401736,-0.21579283
13.87235307,-2.08157530,0.19670293,2.62500924

>  <Name>
Baicalein.pdb

>  <RI>
-6.70158e+08

>  <Rbt.Current_Directory>
/root/miniconda3/envs/rdock/share/rxdock-2013.1.1_148c5bd1-0/data/ligands/prepped_ligands/Baicalein

>  <Rbt.Executable>
rbdock/0.1.0

>  <Rbt.Library>
librxdock.so/0.1.0

>  <Rbt.Parameter_File>
/root/miniconda3/envs/rdock/share/rxdock-2013.1.1_148c5bd1-0/data/scripts/dock.prm

>  <Rbt.Receptor>
def.prm

>  <SCORE>
-15.2568

>  <SCORE.INTER>
-15.22

>  <SCORE.INTER.CONST>
1

>  <SCORE.INTER.POLAR>
-0.499868

>  <SCORE.INTER.REPUL>
0.0340774

>  <SCORE.INTER.ROT>
1

>  <SCORE.INTER.VDW>
-20.0908

>  <SCORE.INTER.norm>
-0.761

>  <SCORE.INTRA>
1.00528

>  <SCORE.INTRA.DIHEDRAL>
-0.598503

>  <SCORE.INTRA.DIHEDRAL.0>
1.23589

>  <SCORE.INTRA.POLAR>
0.211172

>  <SCORE.INTRA.POLAR.0>
-0.398182

>  <SCORE.INTRA.REPUL>
0

>  <SCORE.INTRA.REPUL.0>
0

>  <SCORE.INTRA.VDW>
0.586545

>  <SCORE.INTRA.VDW.0>
0.600462

>  <SCORE.INTRA.norm>
0.0502639

>  <SCORE.RESTR>
0

>  <SCORE.RESTR.CAVITY>
0

>  <SCORE.RESTR.norm>
0

>  <SCORE.SYSTEM>
-1.04211

>  <SCORE.SYSTEM.CONST>
0

>  <SCORE.SYSTEM.DIHEDRAL>
0.0803737

>  <SCORE.SYSTEM.VDW>
-1.0823

>  <SCORE.SYSTEM.norm>
-0.0521055

>  <SCORE.heavy>
20

>  <SCORE.norm>
-0.762842

$$$$
Baicalein.pdb
  RxDock  02242101073D
librxdock.so/0.1.0
 23 25  0  0  0  0  0  0  0  0999 V2000
  -52.8328   -4.2172   14.9409 O   0  0  0  0  0  0
  -50.9682   -1.0276   18.0701 O   0  0  0  0  0  0
  -49.8978    0.3472   15.9696 O   0  0  0  0  0  0
  -50.2802   -0.5399   13.3792 O   0  0  0  0  0  0
  -52.3895   -3.0814   18.8279 O   0  0  0  0  0  0
  -51.9206   -2.6474   16.5531 C   0  0  0  0  0  0
  -52.1117   -3.0917   15.2463 C   0  0  0  0  0  0
  -53.3877   -4.9481   15.9801 C   0  0  0  0  0  0
  -51.1770   -1.4919   16.8052 C   0  0  0  0  0  0
  -52.5154   -3.4150   17.6582 C   0  0  0  0  0  0
  -53.2796   -4.6201   17.2776 C   0  0  0  0  0  0
  -54.1468   -6.1363   15.5396 C   0  0  0  0  0  0
  -51.5596   -2.3802   14.1803 C   0  0  0  0  0  0
  -50.6249   -0.7827   15.7372 C   0  0  0  0  0  0
  -50.8165   -1.2264   14.4283 C   0  0  0  0  0  0
  -54.9536   -6.0713   14.4010 C   0  0  0  0  0  0
  -54.0628   -7.3301   16.2598 C   0  0  0  0  0  0
  -55.6710   -7.1927   13.9843 C   0  0  0  0  0  0
  -54.7796   -8.4523   15.8434 C   0  0  0  0  0  0
  -55.5836   -8.3832   14.7063 C   0  0  0  0  0  0
  -51.2629   -1.6770   18.7277 H   0  0  0  0  0  0
  -49.4746    0.6176   15.1352 H   0  0  0  0  0  0
  -50.9220   -0.5505   12.6472 H   0  0  0  0  0  0
  1  7  1  0  0  0
  1  8  1  0  0  0
  2  9  1  0  0  0
  2 21  1  0  0  0
  3 14  1  0  0  0
  3 22  1  0  0  0
  4 15  1  0  0  0
  4 23  1  0  0  0
  5 10  2  0  0  0
  6  7  2  0  0  0
  6  9  1  0  0  0
  6 10  1  0  0  0
  7 13  1  0  0  0
  8 11  2  0  0  0
  8 12  1  0  0  0
  9 14  2  0  0  0
 10 11  1  0  0  0
 12 16  2  0  0  0
 12 17  1  0  0  0
 13 15  2  0  0  0
 14 15  1  0  0  0
 16 18  1  0  0  0
 17 19  2  0  0  0
 18 20  2  0  0  0
 19 20  1  0  0  0
M  END
>  <CHROM.0>
-178.76055692,69.75559229,-177.34143513

>  <CHROM.1>
9.78369617,170.71352125,38.56574885,-39.63901763,-52.56542363,-3.70587745
15.80484377,-3.07294013,0.99479673,1.58087560

>  <Name>
Baicalein.pdb

>  <RI>
-6.70158e+08

>  <Rbt.Current_Directory>
/root/miniconda3/envs/rdock/share/rxdock-2013.1.1_148c5bd1-0/data/ligands/prepped_ligands/Baicalein

>  <Rbt.Executable>
rbdock/0.1.0

>  <Rbt.Library>
librxdock.so/0.1.0

>  <Rbt.Parameter_File>
/root/miniconda3/envs/rdock/share/rxdock-2013.1.1_148c5bd1-0/data/scripts/dock.prm

>  <Rbt.Receptor>
def.prm

>  <SCORE>
-16.3059

>  <SCORE.INTER>
-17.4935

>  <SCORE.INTER.CONST>
1

>  <SCORE.INTER.POLAR>
-1.10518

>  <SCORE.INTER.REPUL>
0

>  <SCORE.INTER.ROT>
1

>  <SCORE.INTER.VDW>
-20.1359

>  <SCORE.INTER.norm>
-0.874676

>  <SCORE.INTRA>
2.09581

>  <SCORE.INTRA.DIHEDRAL>
2.88282

>  <SCORE.INTRA.DIHEDRAL.0>
1.23589

>  <SCORE.INTRA.POLAR>
0.264411

>  <SCORE.INTRA.POLAR.0>
-0.398182

>  <SCORE.INTRA.REPUL>
0

>  <SCORE.INTRA.REPUL.0>
0

>  <SCORE.INTRA.VDW>
-0.244602

>  <SCORE.INTRA.VDW.0>
0.600462

>  <SCORE.INTRA.norm>
0.10479

>  <SCORE.RESTR>
0

>  <SCORE.RESTR.CAVITY>
0

>  <SCORE.RESTR.norm>
0

>  <SCORE.SYSTEM>
-0.908231

>  <SCORE.SYSTEM.CONST>
0

>  <SCORE.SYSTEM.DIHEDRAL>
0.477853

>  <SCORE.SYSTEM.POLAR>
-0.00799582

>  <SCORE.SYSTEM.VDW>
-1.11997

>  <SCORE.SYSTEM.norm>
-0.0454116

>  <SCORE.heavy>
20

>  <SCORE.norm>
-0.815297

$$$$
Baicalein.pdb
  RxDock  02242101073D
librxdock.so/0.1.0
 23 25  0  0  0  0  0  0  0  0999 V2000
  -47.8039    0.6221   13.5439 O   0  0  0  0  0  0
  -48.2807   -3.6841   15.7052 O   0  0  0  0  0  0
  -45.6590   -3.5549   16.4521 O   0  0  0  0  0  0
  -44.1147   -1.3695   15.7576 O   0  0  0  0  0  0
  -50.2498   -2.5027   14.4645 O   0  0  0  0  0  0
  -48.0976   -1.5388   14.6114 C   0  0  0  0  0  0
  -47.3166   -0.4386   14.2632 C   0  0  0  0  0  0
  -49.1296    0.5922   13.1391 C   0  0  0  0  0  0
  -47.5478   -2.5914   15.3472 C   0  0  0  0  0  0
  -49.5073   -1.5703   14.1917 C   0  0  0  0  0  0
  -49.9830   -0.4064   13.4170 C   0  0  0  0  0  0
  -49.5511    1.7850   12.3764 C   0  0  0  0  0  0
  -45.9773   -0.3837   14.6509 C   0  0  0  0  0  0
  -46.2075   -2.5346   15.7329 C   0  0  0  0  0  0
  -45.4250   -1.4329   15.3853 C   0  0  0  0  0  0
  -48.6042    2.5524   11.6938 C   0  0  0  0  0  0
  -50.8981    2.1521   12.3349 C   0  0  0  0  0  0
  -49.0012    3.6790   10.9735 C   0  0  0  0  0  0
  -51.2961    3.2785   11.6143 C   0  0  0  0  0  0
  -50.3478    4.0417   10.9342 C   0  0  0  0  0  0
  -47.7414   -4.3069   16.2175 H   0  0  0  0  0  0
  -44.7071   -3.3789   16.5588 H   0  0  0  0  0  0
  -43.6788   -0.6810   15.2248 H   0  0  0  0  0  0
  1  7  1  0  0  0
  1  8  1  0  0  0
  2  9  1  0  0  0
  2 21  1  0  0  0
  3 14  1  0  0  0
  3 22  1  0  0  0
  4 15  1  0  0  0
  4 23  1  0  0  0
  5 10  2  0  0  0
  6  7  2  0  0  0
  6  9  1  0  0  0
  6 10  1  0  0  0
  7 13  1  0  0  0
  8 11  2  0  0  0
  8 12  1  0  0  0
  9 14  2  0  0  0
 10 11  1  0  0  0
 12 16  2  0  0  0
 12 17  1  0  0  0
 13 15  2  0  0  0
 14 15  1  0  0  0
 16 18  1  0  0  0
 17 19  2  0  0  0
 18 20  2  0  0  0
 19 20  1  0  0  0
M  END
>  <CHROM.0>
179.01750957,179.07858737,-60.93965237

>  <CHROM.1>
-179.44159994,175.02756134,-15.92434445,24.06298415,-48.17302512,-0.27730176
13.91203116,-2.09152826,0.22360927,2.62743274

>  <Name>
Baicalein.pdb

>  <RI>
-6.70158e+08

>  <Rbt.Current_Directory>
/root/miniconda3/envs/rdock/share/rxdock-2013.1.1_148c5bd1-0/data/ligands/prepped_ligands/Baicalein

>  <Rbt.Executable>
rbdock/0.1.0

>  <Rbt.Library>
librxdock.so/0.1.0

>  <Rbt.Parameter_File>
/root/miniconda3/envs/rdock/share/rxdock-2013.1.1_148c5bd1-0/data/scripts/dock.prm

>  <Rbt.Receptor>
def.prm

>  <SCORE>
-16.3184

>  <SCORE.INTER>
-15.7123

>  <SCORE.INTER.CONST>
1

>  <SCORE.INTER.POLAR>
-0.508724

>  <SCORE.INTER.REPUL>
0.0051829

>  <SCORE.INTER.ROT>
1

>  <SCORE.INTER.VDW>
-20.4086

>  <SCORE.INTER.norm>
-0.785615

>  <SCORE.INTRA>
0.453923

>  <SCORE.INTRA.DIHEDRAL>
-0.0654544

>  <SCORE.INTRA.DIHEDRAL.0>
1.23589

>  <SCORE.INTRA.POLAR>
0.054437

>  <SCORE.INTRA.POLAR.0>
-0.398182

>  <SCORE.INTRA.REPUL>
0

>  <SCORE.INTRA.REPUL.0>
0

>  <SCORE.INTRA.VDW>
0.301565

>  <SCORE.INTRA.VDW.0>
0.600462

>  <SCORE.INTRA.norm>
0.0226962

>  <SCORE.RESTR>
0

>  <SCORE.RESTR.CAVITY>
0

>  <SCORE.RESTR.norm>
0

>  <SCORE.SYSTEM>
-1.06005

>  <SCORE.SYSTEM.CONST>
0

>  <SCORE.SYSTEM.DIHEDRAL>
0.010441

>  <SCORE.SYSTEM.VDW>
-1.06527

>  <SCORE.SYSTEM.norm>
-0.0530023

>  <SCORE.heavy>
20

>  <SCORE.norm>
-0.815922

$$$$
Baicalein.pdb
  RxDock  02242101073D
librxdock.so/0.1.0
 23 25  0  0  0  0  0  0  0  0999 V2000
  -47.8948   -0.4089   14.0978 O   0  0  0  0  0  0
  -49.5282   -4.4950   16.1172 O   0  0  0  0  0  0
  -47.1281   -4.7812   17.3843 O   0  0  0  0  0  0
  -45.1242   -2.9118   17.0195 O   0  0  0  0  0  0
  -50.9749   -3.0445   14.4999 O   0  0  0  0  0  0
  -48.7636   -2.4508   15.0833 C   0  0  0  0  0  0
  -47.7516   -1.5103   14.9018 C   0  0  0  0  0  0
  -49.0970   -0.2302   13.4305 C   0  0  0  0  0  0
  -48.5620   -3.5541   15.9162 C   0  0  0  0  0  0
  -50.0439   -2.2601   14.3843 C   0  0  0  0  0  0
  -50.1472   -1.0610   13.5284 C   0  0  0  0  0  0
  -49.1454    0.9886   12.5974 C   0  0  0  0  0  0
  -46.5286   -1.6672   15.5551 C   0  0  0  0  0  0
  -47.3373   -3.7094   16.5678 C   0  0  0  0  0  0
  -46.3238   -2.7676   16.3872 C   0  0  0  0  0  0
  -48.0940    1.2860   11.7269 C   0  0  0  0  0  0
  -50.2418    1.8504   12.6767 C   0  0  0  0  0  0
  -48.1388    2.4369   10.9399 C   0  0  0  0  0  0
  -50.2875    3.0014   11.8896 C   0  0  0  0  0  0
  -49.2361    3.2945   11.0219 C   0  0  0  0  0  0
  -49.1666   -5.3882   16.0058 H   0  0  0  0  0  0
  -47.9786   -5.2364   17.5182 H   0  0  0  0  0  0
  -45.1324   -3.7583   17.5005 H   0  0  0  0  0  0
  1  7  1  0  0  0
  1  8  1  0  0  0
  2  9  1  0  0  0
  2 21  1  0  0  0
  3 14  1  0  0  0
  3 22  1  0  0  0
  4 15  1  0  0  0
  4 23  1  0  0  0
  5 10  2  0  0  0
  6  7  2  0  0  0
  6  9  1  0  0  0
  6 10  1  0  0  0
  7 13  1  0  0  0
  8 11  2  0  0  0
  8 12  1  0  0  0
  9 14  2  0  0  0
 10 11  1  0  0  0
 12 16  2  0  0  0
 12 17  1  0  0  0
 13 15  2  0  0  0
 14 15  1  0  0  0
 16 18  1  0  0  0
 17 19  2  0  0  0
 18 20  2  0  0  0
 19 20  1  0  0  0
M  END
>  <CHROM.0>
57.33473799,177.16421010,-59.59163030

>  <CHROM.1>
131.43489305,-10.00863785,-175.89270023,47.93789357,-48.48802164,-1.22797428
14.38297900,-1.81986781,0.28710675,2.53578025

>  <Name>
Baicalein.pdb

>  <RI>
-6.70158e+08

>  <Rbt.Current_Directory>
/root/miniconda3/envs/rdock/share/rxdock-2013.1.1_148c5bd1-0/data/ligands/prepped_ligands/Baicalein

>  <Rbt.Executable>
rbdock/0.1.0

>  <Rbt.Library>
librxdock.so/0.1.0

>  <Rbt.Parameter_File>
/root/miniconda3/envs/rdock/share/rxdock-2013.1.1_148c5bd1-0/data/scripts/dock.prm

>  <Rbt.Receptor>
def.prm

>  <SCORE>
-13.8728

>  <SCORE.INTER>
-15.2029

>  <SCORE.INTER.CONST>
1

>  <SCORE.INTER.POLAR>
0

>  <SCORE.INTER.REPUL>
0.00964686

>  <SCORE.INTER.ROT>
1

>  <SCORE.INTER.VDW>
-21.6512

>  <SCORE.INTER.norm>
-0.760147

>  <SCORE.INTRA>
2.37819

>  <SCORE.INTRA.DIHEDRAL>
4.23979

>  <SCORE.INTRA.DIHEDRAL.0>
1.23589

>  <SCORE.INTRA.POLAR>
0.221884

>  <SCORE.INTRA.POLAR.0>
-0.398182

>  <SCORE.INTRA.REPUL>
0

>  <SCORE.INTRA.REPUL.0>
0

>  <SCORE.INTRA.VDW>
-0.49611

>  <SCORE.INTRA.VDW.0>
0.600462

>  <SCORE.INTRA.norm>
0.118909

>  <SCORE.RESTR>
0

>  <SCORE.RESTR.CAVITY>
0

>  <SCORE.RESTR.norm>
0

>  <SCORE.SYSTEM>
-1.04806

>  <SCORE.SYSTEM.CONST>
0

>  <SCORE.SYSTEM.DIHEDRAL>
0.0593526

>  <SCORE.SYSTEM.POLAR>
-0.0018194

>  <SCORE.SYSTEM.VDW>
-1.07155

>  <SCORE.SYSTEM.norm>
-0.052403

>  <SCORE.heavy>
20

>  <SCORE.norm>
-0.69364

$$$$
Baicalein.pdb
  RxDock  02242101073D
librxdock.so/0.1.0
 23 25  0  0  0  0  0  0  0  0999 V2000
  -50.6228   -0.8013   13.3610 O   0  0  0  0  0  0
  -48.9454   -4.7941   15.5258 O   0  0  0  0  0  0
  -51.5144   -5.6684   15.8150 O   0  0  0  0  0  0
  -53.6235   -4.1360   14.8949 O   0  0  0  0  0  0
  -47.3775   -2.9031   14.6435 O   0  0  0  0  0  0
  -49.7285   -2.7840   14.4400 C   0  0  0  0  0  0
  -50.7937   -2.0142   13.9771 C   0  0  0  0  0  0
  -49.3333   -0.3179   13.2007 C   0  0  0  0  0  0
  -49.9621   -4.0141   15.0597 C   0  0  0  0  0  0
  -48.3580   -2.2790   14.2636 C   0  0  0  0  0  0
  -48.2272   -0.9674   13.5976 C   0  0  0  0  0  0
  -49.2636    0.9921   12.5215 C   0  0  0  0  0  0
  -52.1030   -2.4718   14.1305 C   0  0  0  0  0  0
  -51.2728   -4.4691   15.2128 C   0  0  0  0  0  0
  -52.3400   -3.6992   14.7488 C   0  0  0  0  0  0
  -50.2563    1.9502   12.7412 C   0  0  0  0  0  0
  -48.2059    1.2788   11.6557 C   0  0  0  0  0  0
  -50.1915    3.1874   12.1002 C   0  0  0  0  0  0
  -48.1401    2.5162   11.0145 C   0  0  0  0  0  0
  -49.1328    3.4698   11.2365 C   0  0  0  0  0  0
  -48.0850   -4.3963   15.3199 H   0  0  0  0  0  0
  -50.6596   -6.0780   16.0385 H   0  0  0  0  0  0
  -53.6015   -5.0132   15.3167 H   0  0  0  0  0  0
  1  7  1  0  0  0
  1  8  1  0  0  0
  2  9  1  0  0  0
  2 21  1  0  0  0
  3 14  1  0  0  0
  3 22  1  0  0  0
  4 15  1  0  0  0
  4 23  1  0  0  0
  5 10  2  0  0  0
  6  7  2  0  0  0
  6  9  1  0  0  0
  6 10  1  0  0  0
  7 13  1  0  0  0
  8 11  2  0  0  0
  8 12  1  0  0  0
  9 14  2  0  0  0
 10 11  1  0  0  0
 12 16  2  0  0  0
 12 17  1  0  0  0
 13 15  2  0  0  0
 14 15  1  0  0  0
 16 18  1  0  0  0
 17 19  2  0  0  0
 18 20  2  0  0  0
 19 20  1  0  0  0
M  END
>  <CHROM.0>
58.27010559,-65.33834738,-61.06273978

>  <CHROM.1>
-3.07850642,-2.20163230,178.24540996,35.39364362,-49.99854525,-1.53563178
13.77661577,1.30212244,0.00615800,-0.46286144

>  <Name>
Baicalein.pdb

>  <RI>
-6.70158e+08

>  <Rbt.Current_Directory>
/root/miniconda3/envs/rdock/share/rxdock-2013.1.1_148c5bd1-0/data/ligands/prepped_ligands/Baicalein

>  <Rbt.Executable>
rbdock/0.1.0

>  <Rbt.Library>
librxdock.so/0.1.0

>  <Rbt.Parameter_File>
/root/miniconda3/envs/rdock/share/rxdock-2013.1.1_148c5bd1-0/data/scripts/dock.prm

>  <Rbt.Receptor>
def.prm

>  <SCORE>
-20.9968

>  <SCORE.INTER>
-20.0401

>  <SCORE.INTER.CONST>
1

>  <SCORE.INTER.POLAR>
-0.834436

>  <SCORE.INTER.REPUL>
0

>  <SCORE.INTER.ROT>
1

>  <SCORE.INTER.VDW>
-23.603

>  <SCORE.INTER.norm>
-1.002

>  <SCORE.INTRA>
0.0793322

>  <SCORE.INTRA.DIHEDRAL>
0.365279

>  <SCORE.INTRA.DIHEDRAL.0>
1.23589

>  <SCORE.INTRA.POLAR>
0.0023428

>  <SCORE.INTRA.POLAR.0>
-0.398182

>  <SCORE.INTRA.REPUL>
0

>  <SCORE.INTRA.REPUL.0>
0

>  <SCORE.INTRA.VDW>
-0.111273

>  <SCORE.INTRA.VDW.0>
0.600462

>  <SCORE.INTRA.norm>
0.00396661

>  <SCORE.RESTR>
0

>  <SCORE.RESTR.CAVITY>
0

>  <SCORE.RESTR.norm>
0

>  <SCORE.SYSTEM>
-1.03604

>  <SCORE.SYSTEM.CONST>
0

>  <SCORE.SYSTEM.DIHEDRAL>
0.152227

>  <SCORE.SYSTEM.VDW>
-1.11216

>  <SCORE.SYSTEM.norm>
-0.0518022

>  <SCORE.heavy>
20

>  <SCORE.norm>
-1.04984

$$$$
Baicalein.pdb
  RxDock  02242101073D
librxdock.so/0.1.0
 23 25  0  0  0  0  0  0  0  0999 V2000
  -50.6095   -4.1537   16.9801 O   0  0  0  0  0  0
  -52.6855   -8.5198   17.2438 O   0  0  0  0  0  0
  -55.0566   -7.3935   16.4975 O   0  0  0  0  0  0
  -55.2177   -4.6792   15.9976 O   0  0  0  0  0  0
  -50.1575   -8.1262   17.7608 O   0  0  0  0  0  0
  -51.6004   -6.3654   17.1280 C   0  0  0  0  0  0
  -51.6849   -4.9977   16.8750 C   0  0  0  0  0  0
  -49.3877   -4.6853   17.3634 C   0  0  0  0  0  0
  -52.7297   -7.1783   17.0037 C   0  0  0  0  0  0
  -50.3037   -6.9351   17.5260 C   0  0  0  0  0  0
  -49.1778   -5.9848   17.6279 C   0  0  0  0  0  0
  -48.2981   -3.6909   17.4399 C   0  0  0  0  0  0
  -52.9028   -4.4332   16.4939 C   0  0  0  0  0  0
  -53.9470   -6.6109   16.6234 C   0  0  0  0  0  0
  -54.0323   -5.2416   16.3691 C   0  0  0  0  0  0
  -48.5625   -2.3927   17.8831 C   0  0  0  0  0  0
  -46.9985   -4.0431   17.0685 C   0  0  0  0  0  0
  -47.5342   -1.4528   17.9555 C   0  0  0  0  0  0
  -45.9695   -3.1038   17.1410 C   0  0  0  0  0  0
  -46.2375   -1.8092   17.5840 C   0  0  0  0  0  0
  -52.6345   -9.0163   16.4120 H   0  0  0  0  0  0
  -55.8091   -6.8237   16.2577 H   0  0  0  0  0  0
  -55.5090   -5.0998   15.1693 H   0  0  0  0  0  0
  1  7  1  0  0  0
  1  8  1  0  0  0
  2  9  1  0  0  0
  2 21  1  0  0  0
  3 14  1  0  0  0
  3 22  1  0  0  0
  4 15  1  0  0  0
  4 23  1  0  0  0
  5 10  2  0  0  0
  6  7  2  0  0  0
  6  9  1  0  0  0
  6 10  1  0  0  0
  7 13  1  0  0  0
  8 11  2  0  0  0
  8 12  1  0  0  0
  9 14  2  0  0  0
 10 11  1  0  0  0
 12 16  2  0  0  0
 12 17  1  0  0  0
 13 15  2  0  0  0
 14 15  1  0  0  0
 16 18  1  0  0  0
 17 19  2  0  0  0
 18 20  2  0  0  0
 19 20  1  0  0  0
M  END
>  <CHROM.0>
167.68714001,63.90451833,42.20378623

>  <CHROM.1>
-100.44080555,178.06653770,120.10878643,35.96259776,-50.78953695,-5.17428013
17.10468586,0.49983553,-0.19447360,-0.11309590

>  <Name>
Baicalein.pdb

>  <RI>
-6.70158e+08

>  <Rbt.Current_Directory>
/root/miniconda3/envs/rdock/share/rxdock-2013.1.1_148c5bd1-0/data/ligands/prepped_ligands/Baicalein

>  <Rbt.Executable>
rbdock/0.1.0

>  <Rbt.Library>
librxdock.so/0.1.0

>  <Rbt.Parameter_File>
/root/miniconda3/envs/rdock/share/rxdock-2013.1.1_148c5bd1-0/data/scripts/dock.prm

>  <Rbt.Receptor>
def.prm

>  <SCORE>
-9.35435

>  <SCORE.INTER>
-13.9163

>  <SCORE.INTER.CONST>
1

>  <SCORE.INTER.POLAR>
-1.4326

>  <SCORE.INTER.REPUL>
0.0372322

>  <SCORE.INTER.ROT>
1

>  <SCORE.INTER.VDW>
-15.6316

>  <SCORE.INTER.norm>
-0.695814

>  <SCORE.INTRA>
4.89031

>  <SCORE.INTRA.DIHEDRAL>
8.62701

>  <SCORE.INTRA.DIHEDRAL.0>
1.23589

>  <SCORE.INTRA.POLAR>
0.398182

>  <SCORE.INTRA.POLAR.0>
-0.398182

>  <SCORE.INTRA.REPUL>
0

>  <SCORE.INTRA.REPUL.0>
0

>  <SCORE.INTRA.VDW>
-0.777015

>  <SCORE.INTRA.VDW.0>
0.600462

>  <SCORE.INTRA.norm>
0.244516

>  <SCORE.RESTR>
0

>  <SCORE.RESTR.CAVITY>
0

>  <SCORE.RESTR.norm>
0

>  <SCORE.SYSTEM>
-0.328372

>  <SCORE.SYSTEM.CONST>
0

>  <SCORE.SYSTEM.DIHEDRAL>
1.1839

>  <SCORE.SYSTEM.VDW>
-0.920322

>  <SCORE.SYSTEM.norm>
-0.0164186

>  <SCORE.heavy>
20

>  <SCORE.norm>
-0.467717

$$$$
Baicalein.pdb
  RxDock  02242101083D
librxdock.so/0.1.0
 23 25  0  0  0  0  0  0  0  0999 V2000
  -52.5984   -4.5410   15.0809 O   0  0  0  0  0  0
  -52.6121   -8.5030   17.8638 O   0  0  0  0  0  0
  -54.7633   -9.4305   16.4638 O   0  0  0  0  0  0
  -55.8319   -7.9398   14.3952 O   0  0  0  0  0  0
  -50.8737   -6.5784   18.1581 O   0  0  0  0  0  0
  -52.5604   -6.5072   16.5049 C   0  0  0  0  0  0
  -53.1012   -5.7584   15.4616 C   0  0  0  0  0  0
  -51.5097   -4.0309   15.7714 C   0  0  0  0  0  0
  -53.1136   -7.7431   16.8487 C   0  0  0  0  0  0
  -51.3995   -5.9738   17.2343 C   0  0  0  0  0  0
  -50.8976   -4.6584   16.7884 C   0  0  0  0  0  0
  -51.0466   -2.7184   15.2765 C   0  0  0  0  0  0
  -54.2011   -6.2432   14.7528 C   0  0  0  0  0  0
  -54.2145   -8.2252   16.1389 C   0  0  0  0  0  0
  -54.7561   -7.4765   15.0935 C   0  0  0  0  0  0
  -50.3745   -1.8428   16.1327 C   0  0  0  0  0  0
  -51.2795   -2.3458   13.9507 C   0  0  0  0  0  0
  -49.9369   -0.6031   15.6663 C   0  0  0  0  0  0
  -50.8418   -1.1063   13.4833 C   0  0  0  0  0  0
  -50.1712   -0.2353   14.3411 C   0  0  0  0  0  0
  -51.8179   -8.0925   18.2404 H   0  0  0  0  0  0
  -55.4761   -9.6249   15.8293 H   0  0  0  0  0  0
  -56.0280   -7.3074   13.6813 H   0  0  0  0  0  0
  1  7  1  0  0  0
  1  8  1  0  0  0
  2  9  1  0  0  0
  2 21  1  0  0  0
  3 14  1  0  0  0
  3 22  1  0  0  0
  4 15  1  0  0  0
  4 23  1  0  0  0
  5 10  2  0  0  0
  6  7  2  0  0  0
  6  9  1  0  0  0
  6 10  1  0  0  0
  7 13  1  0  0  0
  8 11  2  0  0  0
  8 12  1  0  0  0
  9 14  2  0  0  0
 10 11  1  0  0  0
 12 16  2  0  0  0
 12 17  1  0  0  0
 13 15  2  0  0  0
 14 15  1  0  0  0
 16 18  1  0  0  0
 17 19  2  0  0  0
 18 20  2  0  0  0
 19 20  1  0  0  0
M  END
>  <CHROM.0>
-58.36866479,178.16193210,53.63871769

>  <CHROM.1>
-3.75880135,-176.31691552,3.24660925,153.91011784,-52.37280256,-5.25679099
15.79820640,0.91483198,-0.70440750,-0.65201807

>  <Name>
Baicalein.pdb

>  <RI>
-6.70158e+08

>  <Rbt.Current_Directory>
/root/miniconda3/envs/rdock/share/rxdock-2013.1.1_148c5bd1-0/data/ligands/prepped_ligands/Baicalein

>  <Rbt.Executable>
rbdock/0.1.0

>  <Rbt.Library>
librxdock.so/0.1.0

>  <Rbt.Parameter_File>
/root/miniconda3/envs/rdock/share/rxdock-2013.1.1_148c5bd1-0/data/scripts/dock.prm

>  <Rbt.Receptor>
def.prm

>  <SCORE>
-14.9633

>  <SCORE.INTER>
-14.9964

>  <SCORE.INTER.CONST>
1

>  <SCORE.INTER.POLAR>
-0.938083

>  <SCORE.INTER.REPUL>
0

>  <SCORE.INTER.ROT>
1

>  <SCORE.INTER.VDW>
-18.2069

>  <SCORE.INTER.norm>
-0.74982

>  <SCORE.INTRA>
1.06834

>  <SCORE.INTRA.DIHEDRAL>
-0.223

>  <SCORE.INTRA.DIHEDRAL.0>
1.23589

>  <SCORE.INTRA.POLAR>
0.214853

>  <SCORE.INTRA.POLAR.0>
-0.398182

>  <SCORE.INTRA.REPUL>
0

>  <SCORE.INTRA.REPUL.0>
0

>  <SCORE.INTRA.VDW>
0.44934

>  <SCORE.INTRA.VDW.0>
0.600462

>  <SCORE.INTRA.norm>
0.0534171

>  <SCORE.RESTR>
0

>  <SCORE.RESTR.CAVITY>
0

>  <SCORE.RESTR.norm>
0

>  <SCORE.SYSTEM>
-1.0352

>  <SCORE.SYSTEM.CONST>
0

>  <SCORE.SYSTEM.DIHEDRAL>
0.126231

>  <SCORE.SYSTEM.VDW>
-1.09831

>  <SCORE.SYSTEM.norm>
-0.05176

>  <SCORE.heavy>
20

>  <SCORE.norm>
-0.748163

$$$$
Baicalein.pdb
  RxDock  02242101083D
librxdock.so/0.1.0
 23 25  0  0  0  0  0  0  0  0999 V2000
  -52.8506   -4.2801   14.7943 O   0  0  0  0  0  0
  -51.0042   -0.9280   17.7602 O   0  0  0  0  0  0
  -49.8936    0.3149   15.5992 O   0  0  0  0  0  0
  -50.2470   -0.7181   13.0593 O   0  0  0  0  0  0
  -52.4523   -2.9241   18.6150 O   0  0  0  0  0  0
  -51.9483   -2.6261   16.3259 C   0  0  0  0  0  0
  -52.1248   -3.1440   15.0444 C   0  0  0  0  0  0
  -53.4258   -4.9455   15.8661 C   0  0  0  0  0  0
  -51.1990   -1.4634   16.5213 C   0  0  0  0  0  0
  -52.5646   -3.3241   17.4649 C   0  0  0  0  0  0
  -53.3331   -4.5436   17.1438 C   0  0  0  0  0  0
  -54.1882   -6.1517   15.4842 C   0  0  0  0  0  0
  -51.5522   -2.4996   13.9471 C   0  0  0  0  0  0
  -50.6264   -0.8213   15.4222 C   0  0  0  0  0  0
  -50.8033   -1.3387   14.1385 C   0  0  0  0  0  0
  -55.0410   -6.1220   14.3781 C   0  0  0  0  0  0
  -54.0613   -7.3273   16.2276 C   0  0  0  0  0  0
  -55.7616   -7.2605   14.0168 C   0  0  0  0  0  0
  -54.7813   -8.4665   15.8666 C   0  0  0  0  0  0
  -55.6313   -8.4328   14.7618 C   0  0  0  0  0  0
  -50.4567   -0.1290   17.7070 H   0  0  0  0  0  0
  -49.4963    0.5609   14.7447 H   0  0  0  0  0  0
  -49.9072   -1.4019   12.4553 H   0  0  0  0  0  0
  1  7  1  0  0  0
  1  8  1  0  0  0
  2  9  1  0  0  0
  2 21  1  0  0  0
  3 14  1  0  0  0
  3 22  1  0  0  0
  4 15  1  0  0  0
  4 23  1  0  0  0
  5 10  2  0  0  0
  6  7  2  0  0  0
  6  9  1  0  0  0
  6 10  1  0  0  0
  7 13  1  0  0  0
  8 11  2  0  0  0
  8 12  1  0  0  0
  9 14  2  0  0  0
 10 11  1  0  0  0
 12 16  2  0  0  0
 12 17  1  0  0  0
 13 15  2  0  0  0
 14 15  1  0  0  0
 16 18  1  0  0  0
 17 19  2  0  0  0
 18 20  2  0  0  0
 19 20  1  0  0  0
M  END
>  <CHROM.0>
58.48718632,-64.55930641,-65.97167062

>  <CHROM.1>
179.57710422,173.79989967,-39.83501708,-43.50476556,-52.58449839,-3.71851727
15.62868748,-3.03870259,0.98514936,1.49232576

>  <Name>
Baicalein.pdb

>  <RI>
-6.70158e+08

>  <Rbt.Current_Directory>
/root/miniconda3/envs/rdock/share/rxdock-2013.1.1_148c5bd1-0/data/ligands/prepped_ligands/Baicalein

>  <Rbt.Executable>
rbdock/0.1.0

>  <Rbt.Library>
librxdock.so/0.1.0

>  <Rbt.Parameter_File>
/root/miniconda3/envs/rdock/share/rxdock-2013.1.1_148c5bd1-0/data/scripts/dock.prm

>  <Rbt.Receptor>
def.prm

>  <SCORE>
-18.128

>  <SCORE.INTER>
-18.5469

>  <SCORE.INTER.CONST>
1

>  <SCORE.INTER.POLAR>
-1.19184

>  <SCORE.INTER.REPUL>
0

>  <SCORE.INTER.ROT>
1

>  <SCORE.INTER.VDW>
-20.8946

>  <SCORE.INTER.norm>
-0.927343

>  <SCORE.INTRA>
1.43761

>  <SCORE.INTRA.DIHEDRAL>
3.10442

>  <SCORE.INTRA.DIHEDRAL.0>
1.23589

>  <SCORE.INTRA.POLAR>
0.0962466

>  <SCORE.INTRA.POLAR.0>
-0.398182

>  <SCORE.INTRA.REPUL>
0

>  <SCORE.INTRA.REPUL.0>
0

>  <SCORE.INTRA.VDW>
-0.441834

>  <SCORE.INTRA.VDW.0>
0.600462

>  <SCORE.INTRA.norm>
0.0718807

>  <SCORE.RESTR>
0

>  <SCORE.RESTR.CAVITY>
0

>  <SCORE.RESTR.norm>
0

>  <SCORE.SYSTEM>
-1.01873

>  <SCORE.SYSTEM.CONST>
0

>  <SCORE.SYSTEM.DIHEDRAL>
0.201118

>  <SCORE.SYSTEM.VDW>
-1.11929

>  <SCORE.SYSTEM.norm>
-0.0509366

>  <SCORE.heavy>
20

>  <SCORE.norm>
-0.906399

$$$$
Baicalein.pdb
  RxDock  02242101083D
librxdock.so/0.1.0
 23 25  0  0  0  0  0  0  0  0999 V2000
  -51.6089   -5.4360   15.9771 O   0  0  0  0  0  0
  -47.8001   -5.9363   18.9241 O   0  0  0  0  0  0
  -46.4391   -4.1204   17.4083 O   0  0  0  0  0  0
  -47.6358   -2.9693   15.1978 O   0  0  0  0  0  0
  -50.0320   -7.2448   19.2690 O   0  0  0  0  0  0
  -49.7285   -5.7248   17.4857 C   0  0  0  0  0  0
  -50.3288   -5.1426   16.3711 C   0  0  0  0  0  0
  -52.3323   -6.3590   16.7166 C   0  0  0  0  0  0
  -48.4204   -5.3868   17.8413 C   0  0  0  0  0  0
  -50.4958   -6.6979   18.2785 C   0  0  0  0  0  0
  -51.8678   -6.9820   17.8116 C   0  0  0  0  0  0
  -53.6989   -6.5964   16.2085 C   0  0  0  0  0  0
  -49.6230   -4.2151   15.6038 C   0  0  0  0  0  0
  -47.7161   -4.4596   17.0714 C   0  0  0  0  0  0
  -48.3169   -3.8756   15.9557 C   0  0  0  0  0  0
  -54.5175   -5.5176   15.8656 C   0  0  0  0  0  0
  -54.1797   -7.9004   16.0693 C   0  0  0  0  0  0
  -55.8082   -5.7408   15.3859 C   0  0  0  0  0  0
  -55.4703   -8.1245   15.5891 C   0  0  0  0  0  0
  -56.2842   -7.0449   15.2480 C   0  0  0  0  0  0
  -46.8936   -6.2014   18.7031 H   0  0  0  0  0  0
  -46.1232   -3.4480   16.7785 H   0  0  0  0  0  0
  -47.3142   -3.4208   14.3974 H   0  0  0  0  0  0
  1  7  1  0  0  0
  1  8  1  0  0  0
  2  9  1  0  0  0
  2 21  1  0  0  0
  3 14  1  0  0  0
  3 22  1  0  0  0
  4 15  1  0  0  0
  4 23  1  0  0  0
  5 10  2  0  0  0
  6  7  2  0  0  0
  6  9  1  0  0  0
  6 10  1  0  0  0
  7 13  1  0  0  0
  8 11  2  0  0  0
  8 12  1  0  0  0
  9 14  2  0  0  0
 10 11  1  0  0  0
 12 16  2  0  0  0
 12 17  1  0  0  0
 13 15  2  0  0  0
 14 15  1  0  0  0
 16 18  1  0  0  0
 17 19  2  0  0  0
 18 20  2  0  0  0
 19 20  1  0  0  0
M  END
>  <CHROM.0>
74.07176027,-61.25718120,-173.93614272

>  <CHROM.1>
135.25181888,-178.33589345,-78.54104731,-46.54984887,-50.96304402,-5.73026736
16.74004100,3.06631720,0.35075717,2.30272271

>  <Name>
Baicalein.pdb

>  <RI>
-6.70158e+08

>  <Rbt.Current_Directory>
/root/miniconda3/envs/rdock/share/rxdock-2013.1.1_148c5bd1-0/data/ligands/prepped_ligands/Baicalein

>  <Rbt.Executable>
rbdock/0.1.0

>  <Rbt.Library>
librxdock.so/0.1.0

>  <Rbt.Parameter_File>
/root/miniconda3/envs/rdock/share/rxdock-2013.1.1_148c5bd1-0/data/scripts/dock.prm

>  <Rbt.Receptor>
def.prm

>  <SCORE>
-12.1852

>  <SCORE.INTER>
-15.8287

>  <SCORE.INTER.CONST>
1

>  <SCORE.INTER.POLAR>
-1.24844

>  <SCORE.INTER.REPUL>
0

>  <SCORE.INTER.ROT>
1

>  <SCORE.INTER.VDW>
-17.984

>  <SCORE.INTER.norm>
-0.791434

>  <SCORE.INTRA>
4.36033

>  <SCORE.INTRA.DIHEDRAL>
8.32324

>  <SCORE.INTRA.DIHEDRAL.0>
1.23589

>  <SCORE.INTRA.POLAR>
0.354492

>  <SCORE.INTRA.POLAR.0>
-0.398182

>  <SCORE.INTRA.REPUL>
0

>  <SCORE.INTRA.REPUL.0>
0

>  <SCORE.INTRA.VDW>
-1.00656

>  <SCORE.INTRA.VDW.0>
0.600462

>  <SCORE.INTRA.norm>
0.218016

>  <SCORE.RESTR>
0.000993527

>  <SCORE.RESTR.CAVITY>
0.000993527

>  <SCORE.RESTR.norm>
4.96763e-05

>  <SCORE.SYSTEM>
-0.717811

>  <SCORE.SYSTEM.CONST>
0

>  <SCORE.SYSTEM.DIHEDRAL>
0.550463

>  <SCORE.SYSTEM.POLAR>
-0.0137887

>  <SCORE.SYSTEM.VDW>
-0.946161

>  <SCORE.SYSTEM.norm>
-0.0358906

>  <SCORE.heavy>
20

>  <SCORE.norm>
-0.609258

$$$$
Baicalein.pdb
  RxDock  02242101083D
librxdock.so/0.1.0
 23 25  0  0  0  0  0  0  0  0999 V2000
  -52.4950   -3.7932   14.9244 O   0  0  0  0  0  0
  -53.0882   -8.1605   16.9286 O   0  0  0  0  0  0
  -55.7850   -7.9006   16.6008 O   0  0  0  0  0  0
  -56.8390   -5.6176   15.4518 O   0  0  0  0  0  0
  -50.7408   -7.0706   16.5906 O   0  0  0  0  0  0
  -52.7359   -5.9874   15.9358 C   0  0  0  0  0  0
  -53.2703   -4.8381   15.3568 C   0  0  0  0  0  0
  -51.1201   -3.8829   15.0790 C   0  0  0  0  0  0
  -53.5747   -7.0220   16.3573 C   0  0  0  0  0  0
  -51.2769   -6.0905   16.0934 C   0  0  0  0  0  0
  -50.4865   -4.9383   15.6151 C   0  0  0  0  0  0
  -50.3817   -2.7067   14.5756 C   0  0  0  0  0  0
  -54.6509   -4.7167   15.1942 C   0  0  0  0  0  0
  -54.9554   -6.8976   16.1945 C   0  0  0  0  0  0
  -55.4913   -5.7475   15.6141 C   0  0  0  0  0  0
  -51.0535   -1.5052   14.3378 C   0  0  0  0  0  0
  -49.0086   -2.7903   14.3337 C   0  0  0  0  0  0
  -50.3571   -0.3941   13.8622 C   0  0  0  0  0  0
  -48.3112   -1.6793   13.8585 C   0  0  0  0  0  0
  -48.9856   -0.4819   13.6225 C   0  0  0  0  0  0
  -52.3633   -8.5281   16.3991 H   0  0  0  0  0  0
  -56.7053   -7.6150   16.4590 H   0  0  0  0  0  0
  -57.0647   -4.6727   15.5164 H   0  0  0  0  0  0
  1  7  1  0  0  0
  1  8  1  0  0  0
  2  9  1  0  0  0
  2 21  1  0  0  0
  3 14  1  0  0  0
  3 22  1  0  0  0
  4 15  1  0  0  0
  4 23  1  0  0  0
  5 10  2  0  0  0
  6  7  2  0  0  0
  6  9  1  0  0  0
  6 10  1  0  0  0
  7 13  1  0  0  0
  8 11  2  0  0  0
  8 12  1  0  0  0
  9 14  2  0  0  0
 10 11  1  0  0  0
 12 16  2  0  0  0
 12 17  1  0  0  0
 13 15  2  0  0  0
 14 15  1  0  0  0
 16 18  1  0  0  0
 17 19  2  0  0  0
 18 20  2  0  0  0
 19 20  1  0  0  0
M  END
>  <CHROM.0>
59.70579622,178.45940668,-174.77032350

>  <CHROM.1>
-48.93636382,176.55377977,-30.82702756,16.98451249,-52.33308903,-4.71830972
15.36821326,0.81972524,-0.03779022,-0.41325140

>  <Name>
Baicalein.pdb

>  <RI>
-6.70158e+08

>  <Rbt.Current_Directory>
/root/miniconda3/envs/rdock/share/rxdock-2013.1.1_148c5bd1-0/data/ligands/prepped_ligands/Baicalein

>  <Rbt.Executable>
rbdock/0.1.0

>  <Rbt.Library>
librxdock.so/0.1.0

>  <Rbt.Parameter_File>
/root/miniconda3/envs/rdock/share/rxdock-2013.1.1_148c5bd1-0/data/scripts/dock.prm

>  <Rbt.Receptor>
def.prm

>  <SCORE>
-11.469

>  <SCORE.INTER>
-12.7916

>  <SCORE.INTER.CONST>
1

>  <SCORE.INTER.POLAR>
-0.608005

>  <SCORE.INTER.REPUL>
0.0384211

>  <SCORE.INTER.ROT>
1

>  <SCORE.INTER.VDW>
-17.3165

>  <SCORE.INTER.norm>
-0.639578

>  <SCORE.INTRA>
2.38387

>  <SCORE.INTRA.DIHEDRAL>
3.1607

>  <SCORE.INTRA.DIHEDRAL.0>
1.23589

>  <SCORE.INTRA.POLAR>
0.24339

>  <SCORE.INTRA.POLAR.0>
-0.398182

>  <SCORE.INTRA.REPUL>
0

>  <SCORE.INTRA.REPUL.0>
0

>  <SCORE.INTRA.VDW>
-0.0240096

>  <SCORE.INTRA.VDW.0>
0.600462

>  <SCORE.INTRA.norm>
0.119193

>  <SCORE.RESTR>
0

>  <SCORE.RESTR.CAVITY>
0

>  <SCORE.RESTR.norm>
0

>  <SCORE.SYSTEM>
-1.06132

>  <SCORE.SYSTEM.CONST>
0

>  <SCORE.SYSTEM.DIHEDRAL>
0.0751833

>  <SCORE.SYSTEM.POLAR>
-0.0125612

>  <SCORE.SYSTEM.VDW>
-1.0562

>  <SCORE.SYSTEM.norm>
-0.0530659

>  <SCORE.heavy>
20

>  <SCORE.norm>
-0.573451

$$$$
