Baicalein.pdb
  RxDock  02242112463D
librxdock.so/0.1.0
 23 25  0  0  0  0  0  0  0  0999 V2000
  -52.8396   -4.3083   14.8627 O   0  0  0  0  0  0
  -51.0157   -0.9360   17.8196 O   0  0  0  0  0  0
  -49.9122    0.3077   15.6556 O   0  0  0  0  0  0
  -50.2580   -0.7348   13.1185 O   0  0  0  0  0  0
  -52.4516   -2.9388   18.6796 O   0  0  0  0  0  0
  -51.9485   -2.6442   16.3899 C   0  0  0  0  0  0
  -52.1211   -3.1669   15.1098 C   0  0  0  0  0  0
  -53.4111   -4.9743   15.9361 C   0  0  0  0  0  0
  -51.2067   -1.4762   16.5823 C   0  0  0  0  0  0
  -52.5609   -3.3428   17.5306 C   0  0  0  0  0  0
  -53.3215   -4.5681   17.2127 C   0  0  0  0  0  0
  -54.1657   -6.1864   15.5574 C   0  0  0  0  0  0
  -51.5522   -2.5220   14.0109 C   0  0  0  0  0  0
  -50.6377   -0.8336   15.4815 C   0  0  0  0  0  0
  -50.8108   -1.3559   14.1993 C   0  0  0  0  0  0
  -54.0319   -7.3587   16.3053 C   0  0  0  0  0  0
  -55.0156   -6.1668   14.4492 C   0  0  0  0  0  0
  -54.7440   -8.5039   15.9483 C   0  0  0  0  0  0
  -55.7284   -7.3116   14.0917 C   0  0  0  0  0  0
  -55.5922   -8.4796   14.8409 C   0  0  0  0  0  0
  -50.4860   -0.1254   17.7628 H   0  0  0  0  0  0
  -49.5473    0.5747   14.7930 H   0  0  0  0  0  0
  -49.9284   -1.4186   12.5088 H   0  0  0  0  0  0
  1  7  1  0  0  0
  1  8  1  0  0  0
  2  9  1  0  0  0
  2 21  1  0  0  0
  3 14  1  0  0  0
  3 22  1  0  0  0
  4 15  1  0  0  0
  4 23  1  0  0  0
  5 10  2  0  0  0
  6  7  2  0  0  0
  6  9  1  0  0  0
  6 10  1  0  0  0
  7 13  1  0  0  0
  8 11  2  0  0  0
  8 12  1  0  0  0
  9 14  2  0  0  0
 10 11  1  0  0  0
 12 16  2  0  0  0
 12 17  1  0  0  0
 13 15  2  0  0  0
 14 15  1  0  0  0
 16 18  1  0  0  0
 17 19  2  0  0  0
 18 20  2  0  0  0
 19 20  1  0  0  0
M  END
>  <CHROM.0>
179.44835682,-59.47014231,59.07881340

>  <CHROM.1>
-179.45518797,176.17141277,-38.79800202,136.60012033,-52.57734624,-3.74275233
15.69551275,-3.03695448,0.99173154,1.48794032

>  <Name>
Baicalein.pdb

>  <RI>
-4.18311e+08

>  <Rbt.Current_Directory>
/root/miniconda3/envs/rdock/share/rxdock-2013.1.1_148c5bd1-0/data/ligands/prepped_ligands/Baicalein

>  <Rbt.Executable>
rbdock/0.1.0

>  <Rbt.Library>
librxdock.so/0.1.0

>  <Rbt.Parameter_File>
/root/miniconda3/envs/rdock/share/rxdock-2013.1.1_148c5bd1-0/data/scripts/dock.prm

>  <Rbt.Receptor>
def.prm

>  <SCORE>
-18.2989

>  <SCORE.INTER>
-18.6244

>  <SCORE.INTER.CONST>
1

>  <SCORE.INTER.POLAR>
-1.23003

>  <SCORE.INTER.REPUL>
0

>  <SCORE.INTER.ROT>
1

>  <SCORE.INTER.VDW>
-20.8423

>  <SCORE.INTER.norm>
-0.93122

>  <SCORE.INTRA>
1.36105

>  <SCORE.INTRA.DIHEDRAL>
2.97582

>  <SCORE.INTRA.DIHEDRAL.0>
1.23589

>  <SCORE.INTRA.POLAR>
0.0871236

>  <SCORE.INTRA.POLAR.0>
-0.398182

>  <SCORE.INTRA.REPUL>
0

>  <SCORE.INTRA.REPUL.0>
0

>  <SCORE.INTRA.VDW>
-0.423075

>  <SCORE.INTRA.VDW.0>
0.600462

>  <SCORE.INTRA.norm>
0.0680527

>  <SCORE.RESTR>
0

>  <SCORE.RESTR.CAVITY>
0

>  <SCORE.RESTR.norm>
0

>  <SCORE.SYSTEM>
-1.03551

>  <SCORE.SYSTEM.CONST>
0

>  <SCORE.SYSTEM.DIHEDRAL>
0.00558914

>  <SCORE.SYSTEM.VDW>
-1.0383

>  <SCORE.SYSTEM.norm>
-0.0517753

>  <SCORE.heavy>
20

>  <SCORE.norm>
-0.914943

$$$$
Baicalein.pdb
  RxDock  02242112463D
librxdock.so/0.1.0
 23 25  0  0  0  0  0  0  0  0999 V2000
  -47.5598    0.3445   13.7096 O   0  0  0  0  0  0
  -48.3237   -3.6490   16.3383 O   0  0  0  0  0  0
  -45.6557   -3.7383   16.9050 O   0  0  0  0  0  0
  -43.9470   -1.8164   15.8902 O   0  0  0  0  0  0
  -50.2441   -2.3844   15.1032 O   0  0  0  0  0  0
  -47.9984   -1.6551   15.0151 C   0  0  0  0  0  0
  -47.1346   -0.6878   14.5054 C   0  0  0  0  0  0
  -48.9073    0.4221   13.3924 C   0  0  0  0  0  0
  -47.5091   -2.6848   15.8226 C   0  0  0  0  0  0
  -49.4304   -1.5713   14.6885 C   0  0  0  0  0  0
  -49.8374   -0.4437   13.8260 C   0  0  0  0  0  0
  -49.2567    1.5734   12.5355 C   0  0  0  0  0  0
  -45.7722   -0.7438   14.8023 C   0  0  0  0  0  0
  -46.1458   -2.7391   16.1171 C   0  0  0  0  0  0
  -45.2803   -1.7704   15.6079 C   0  0  0  0  0  0
  -50.5416    2.1196   12.5833 C   0  0  0  0  0  0
  -48.3047    2.1209   11.6724 C   0  0  0  0  0  0
  -50.8725    3.2067   11.7743 C   0  0  0  0  0  0
  -48.6348    3.2085   10.8633 C   0  0  0  0  0  0
  -49.9184    3.7508   10.9141 C   0  0  0  0  0  0
  -49.2424   -3.5073   16.0608 H   0  0  0  0  0  0
  -46.4059   -4.2583   17.2444 H   0  0  0  0  0  0
  -43.7521   -2.6753   16.3053 H   0  0  0  0  0  0
  1  7  1  0  0  0
  1  8  1  0  0  0
  2  9  1  0  0  0
  2 21  1  0  0  0
  3 14  1  0  0  0
  3 22  1  0  0  0
  4 15  1  0  0  0
  4 23  1  0  0  0
  5 10  2  0  0  0
  6  7  2  0  0  0
  6  9  1  0  0  0
  6 10  1  0  0  0
  7 13  1  0  0  0
  8 11  2  0  0  0
  8 12  1  0  0  0
  9 14  2  0  0  0
 10 11  1  0  0  0
 12 16  2  0  0  0
 12 17  1  0  0  0
 13 15  2  0  0  0
 14 15  1  0  0  0
 16 18  1  0  0  0
 17 19  2  0  0  0
 18 20  2  0  0  0
 19 20  1  0  0  0
M  END
>  <CHROM.0>
177.56510944,-64.93757076,-67.86091193

>  <CHROM.1>
0.27515655,-5.98203251,-168.95082660,-152.98448301,-48.00585535,-0.47282328
14.19439507,-2.03226528,0.10506781,2.51388239

>  <Name>
Baicalein.pdb

>  <RI>
-4.18311e+08

>  <Rbt.Current_Directory>
/root/miniconda3/envs/rdock/share/rxdock-2013.1.1_148c5bd1-0/data/ligands/prepped_ligands/Baicalein

>  <Rbt.Executable>
rbdock/0.1.0

>  <Rbt.Library>
librxdock.so/0.1.0

>  <Rbt.Parameter_File>
/root/miniconda3/envs/rdock/share/rxdock-2013.1.1_148c5bd1-0/data/scripts/dock.prm

>  <Rbt.Receptor>
def.prm

>  <SCORE>
-15.6171

>  <SCORE.INTER>
-14.8303

>  <SCORE.INTER.CONST>
1

>  <SCORE.INTER.POLAR>
-0.63203

>  <SCORE.INTER.REPUL>
0

>  <SCORE.INTER.ROT>
1

>  <SCORE.INTER.VDW>
-19.0814

>  <SCORE.INTER.norm>
-0.741517

>  <SCORE.INTRA>
0.18629

>  <SCORE.INTRA.DIHEDRAL>
-0.0465375

>  <SCORE.INTRA.DIHEDRAL.0>
1.23589

>  <SCORE.INTRA.POLAR>
0.0422119

>  <SCORE.INTRA.POLAR.0>
-0.398182

>  <SCORE.INTRA.REPUL>
0

>  <SCORE.INTRA.REPUL.0>
0

>  <SCORE.INTRA.VDW>
0.0660377

>  <SCORE.INTRA.VDW.0>
0.600462

>  <SCORE.INTRA.norm>
0.00931448

>  <SCORE.RESTR>
0

>  <SCORE.RESTR.CAVITY>
0

>  <SCORE.RESTR.norm>
0

>  <SCORE.SYSTEM>
-0.973046

>  <SCORE.SYSTEM.CONST>
0

>  <SCORE.SYSTEM.DIHEDRAL>
0.292796

>  <SCORE.SYSTEM.VDW>
-1.11944

>  <SCORE.SYSTEM.norm>
-0.0486523

>  <SCORE.heavy>
20

>  <SCORE.norm>
-0.780854

$$$$
Baicalein.pdb
  RxDock  02242112463D
librxdock.so/0.1.0
 23 25  0  0  0  0  0  0  0  0999 V2000
  -50.8671   -4.3886   16.0010 O   0  0  0  0  0  0
  -53.2132   -8.4836   17.0823 O   0  0  0  0  0  0
  -55.5525   -7.2941   16.3336 O   0  0  0  0  0  0
  -55.5644   -4.6815   15.4295 O   0  0  0  0  0  0
  -50.6309   -8.2224   17.3578 O   0  0  0  0  0  0
  -51.9940   -6.4657   16.5587 C   0  0  0  0  0  0
  -52.0034   -5.1492   16.1023 C   0  0  0  0  0  0
  -49.6584   -4.9537   16.3780 C   0  0  0  0  0  0
  -53.1834   -7.1941   16.6399 C   0  0  0  0  0  0
  -50.7124   -7.0721   16.9510 C   0  0  0  0  0  0
  -49.5187   -6.2114   16.8266 C   0  0  0  0  0  0
  -48.4998   -4.0503   16.2242 C   0  0  0  0  0  0
  -53.2057   -4.5517   15.7221 C   0  0  0  0  0  0
  -54.3849   -6.5938   16.2600 C   0  0  0  0  0  0
  -54.3950   -5.2758   15.8021 C   0  0  0  0  0  0
  -47.4523   -4.0888   17.1477 C   0  0  0  0  0  0
  -48.4464   -3.1526   15.1555 C   0  0  0  0  0  0
  -46.3579   -3.2360   17.0034 C   0  0  0  0  0  0
  -47.3519   -2.2996   15.0102 C   0  0  0  0  0  0
  -46.3084   -2.3412   15.9341 C   0  0  0  0  0  0
  -52.5592   -9.0236   16.6116 H   0  0  0  0  0  0
  -55.3449   -8.2130   16.5807 H   0  0  0  0  0  0
  -56.2836   -5.3291   15.5359 H   0  0  0  0  0  0
  1  7  1  0  0  0
  1  8  1  0  0  0
  2  9  1  0  0  0
  2 21  1  0  0  0
  3 14  1  0  0  0
  3 22  1  0  0  0
  4 15  1  0  0  0
  4 23  1  0  0  0
  5 10  2  0  0  0
  6  7  2  0  0  0
  6  9  1  0  0  0
  6 10  1  0  0  0
  7 13  1  0  0  0
  8 11  2  0  0  0
  8 12  1  0  0  0
  9 14  2  0  0  0
 10 11  1  0  0  0
 12 16  2  0  0  0
 12 17  1  0  0  0
 13 15  2  0  0  0
 14 15  1  0  0  0
 16 18  1  0  0  0
 17 19  2  0  0  0
 18 20  2  0  0  0
 19 20  1  0  0  0
M  END
>  <CHROM.0>
53.33935296,-62.23167194,-178.49488734

>  <CHROM.1>
-50.90007675,-5.80419672,179.15559516,144.16676208,-51.10200772,-5.36692558
16.30136309,0.42849638,-0.16322963,-0.38786302

>  <Name>
Baicalein.pdb

>  <RI>
-4.18311e+08

>  <Rbt.Current_Directory>
/root/miniconda3/envs/rdock/share/rxdock-2013.1.1_148c5bd1-0/data/ligands/prepped_ligands/Baicalein

>  <Rbt.Executable>
rbdock/0.1.0

>  <Rbt.Library>
librxdock.so/0.1.0

>  <Rbt.Parameter_File>
/root/miniconda3/envs/rdock/share/rxdock-2013.1.1_148c5bd1-0/data/scripts/dock.prm

>  <Rbt.Receptor>
def.prm

>  <SCORE>
-11.658

>  <SCORE.INTER>
-12.0012

>  <SCORE.INTER.CONST>
1

>  <SCORE.INTER.POLAR>
-0.401028

>  <SCORE.INTER.REPUL>
0

>  <SCORE.INTER.ROT>
1

>  <SCORE.INTER.VDW>
-17.0377

>  <SCORE.INTER.norm>
-0.600058

>  <SCORE.INTRA>
1.36872

>  <SCORE.INTRA.DIHEDRAL>
3.38459

>  <SCORE.INTRA.DIHEDRAL.0>
1.23589

>  <SCORE.INTRA.POLAR>
0.0859417

>  <SCORE.INTRA.POLAR.0>
-0.398182

>  <SCORE.INTRA.REPUL>
0

>  <SCORE.INTRA.REPUL.0>
0

>  <SCORE.INTRA.VDW>
-0.615773

>  <SCORE.INTRA.VDW.0>
0.600462

>  <SCORE.INTRA.norm>
0.0684361

>  <SCORE.RESTR>
0

>  <SCORE.RESTR.CAVITY>
0

>  <SCORE.RESTR.norm>
0

>  <SCORE.SYSTEM>
-1.02555

>  <SCORE.SYSTEM.CONST>
0

>  <SCORE.SYSTEM.DIHEDRAL>
0.142288

>  <SCORE.SYSTEM.POLAR>
-0.00555517

>  <SCORE.SYSTEM.VDW>
-1.0778

>  <SCORE.SYSTEM.norm>
-0.0512774

>  <SCORE.heavy>
20

>  <SCORE.norm>
-0.582899

$$$$
Baicalein.pdb
  RxDock  02242112463D
librxdock.so/0.1.0
 23 25  0  0  0  0  0  0  0  0999 V2000
  -50.3755   -3.1967   15.0214 O   0  0  0  0  0  0
  -45.7135   -2.7967   16.2653 O   0  0  0  0  0  0
  -45.4962   -0.6426   14.6038 O   0  0  0  0  0  0
  -47.6845    0.2338   13.1594 O   0  0  0  0  0  0
  -47.2787   -4.6462   17.2358 O   0  0  0  0  0  0
  -48.0435   -3.0413   15.6795 C   0  0  0  0  0  0
  -49.1446   -2.5969   14.9503 C   0  0  0  0  0  0
  -50.5263   -4.2988   15.8491 C   0  0  0  0  0  0
  -46.8127   -2.3899   15.5684 C   0  0  0  0  0  0
  -48.2015   -4.2047   16.5659 C   0  0  0  0  0  0
  -49.5450   -4.8169   16.6050 C   0  0  0  0  0  0
  -51.8914   -4.8630   15.8543 C   0  0  0  0  0  0
  -49.0214   -1.4942   14.1040 C   0  0  0  0  0  0
  -46.6917   -1.2879   14.7204 C   0  0  0  0  0  0
  -47.7941   -0.8417   13.9905 C   0  0  0  0  0  0
  -52.9046   -4.2560   15.1083 C   0  0  0  0  0  0
  -52.1763   -6.0053   16.6058 C   0  0  0  0  0  0
  -54.1941   -4.7880   15.1127 C   0  0  0  0  0  0
  -53.4656   -6.5383   16.6104 C   0  0  0  0  0  0
  -54.4741   -5.9295   15.8644 C   0  0  0  0  0  0
  -45.8915   -3.6271   16.7339 H   0  0  0  0  0  0
  -44.8609   -1.0599   15.2127 H   0  0  0  0  0  0
  -46.8270    0.1798   12.7014 H   0  0  0  0  0  0
  1  7  1  0  0  0
  1  8  1  0  0  0
  2  9  1  0  0  0
  2 21  1  0  0  0
  3 14  1  0  0  0
  3 22  1  0  0  0
  4 15  1  0  0  0
  4 23  1  0  0  0
  5 10  2  0  0  0
  6  7  2  0  0  0
  6  9  1  0  0  0
  6 10  1  0  0  0
  7 13  1  0  0  0
  8 11  2  0  0  0
  8 12  1  0  0  0
  9 14  2  0  0  0
 10 11  1  0  0  0
 12 16  2  0  0  0
 12 17  1  0  0  0
 13 15  2  0  0  0
 14 15  1  0  0  0
 16 18  1  0  0  0
 17 19  2  0  0  0
 18 20  2  0  0  0
 19 20  1  0  0  0
M  END
>  <CHROM.0>
179.60822862,63.89679072,175.65877489

>  <CHROM.1>
6.69710934,-2.69891880,-139.94891731,-2.38386647,-49.43332324,-3.34613532
15.45745225,2.61213690,0.25256766,2.46595923

>  <Name>
Baicalein.pdb

>  <RI>
-4.18311e+08

>  <Rbt.Current_Directory>
/root/miniconda3/envs/rdock/share/rxdock-2013.1.1_148c5bd1-0/data/ligands/prepped_ligands/Baicalein

>  <Rbt.Executable>
rbdock/0.1.0

>  <Rbt.Library>
librxdock.so/0.1.0

>  <Rbt.Parameter_File>
/root/miniconda3/envs/rdock/share/rxdock-2013.1.1_148c5bd1-0/data/scripts/dock.prm

>  <Rbt.Receptor>
def.prm

>  <SCORE>
-13.3525

>  <SCORE.INTER>
-13.6343

>  <SCORE.INTER.CONST>
1

>  <SCORE.INTER.POLAR>
-1.06705

>  <SCORE.INTER.REPUL>
0

>  <SCORE.INTER.ROT>
1

>  <SCORE.INTER.VDW>
-16.4063

>  <SCORE.INTER.norm>
-0.681715

>  <SCORE.INTRA>
1.29779

>  <SCORE.INTRA.DIHEDRAL>
0.838224

>  <SCORE.INTRA.DIHEDRAL.0>
1.23589

>  <SCORE.INTRA.POLAR>
0.18422

>  <SCORE.INTRA.POLAR.0>
-0.398182

>  <SCORE.INTRA.REPUL>
0

>  <SCORE.INTRA.REPUL.0>
0

>  <SCORE.INTRA.VDW>
0.252329

>  <SCORE.INTRA.VDW.0>
0.600462

>  <SCORE.INTRA.norm>
0.0648895

>  <SCORE.RESTR>
0

>  <SCORE.RESTR.CAVITY>
0

>  <SCORE.RESTR.norm>
0

>  <SCORE.SYSTEM>
-1.01598

>  <SCORE.SYSTEM.CONST>
0

>  <SCORE.SYSTEM.DIHEDRAL>
0.125353

>  <SCORE.SYSTEM.VDW>
-1.07865

>  <SCORE.SYSTEM.norm>
-0.0507988

>  <SCORE.heavy>
20

>  <SCORE.norm>
-0.667624

$$$$
Baicalein.pdb
  RxDock  02242112463D
librxdock.so/0.1.0
 23 25  0  0  0  0  0  0  0  0999 V2000
  -46.3493   -0.5267   14.3151 O   0  0  0  0  0  0
  -51.0964    0.0640   13.5674 O   0  0  0  0  0  0
  -50.5249    1.4277   11.2736 O   0  0  0  0  0  0
  -47.9002    1.8196   10.4985 O   0  0  0  0  0  0
  -50.1420   -1.2139   15.6335 O   0  0  0  0  0  0
  -48.7403   -0.2590   13.9884 C   0  0  0  0  0  0
  -47.4186   -0.0600   13.5947 C   0  0  0  0  0  0
  -46.5966   -1.2190   15.4907 C   0  0  0  0  0  0
  -49.7911    0.2384   13.2136 C   0  0  0  0  0  0
  -49.0074   -1.0010   15.2303 C   0  0  0  0  0  0
  -47.8229   -1.4798   15.9712 C   0  0  0  0  0  0
  -45.3762   -1.6803   16.1834 C   0  0  0  0  0  0
  -47.1387    0.6387   12.4197 C   0  0  0  0  0  0
  -49.5085    0.9379   12.0393 C   0  0  0  0  0  0
  -48.1852    1.1369   11.6440 C   0  0  0  0  0  0
  -44.1598   -1.7379   15.4988 C   0  0  0  0  0  0
  -45.4325   -2.0623   17.5257 C   0  0  0  0  0  0
  -43.0069   -2.1736   16.1520 C   0  0  0  0  0  0
  -44.2798   -2.4978   18.1799 C   0  0  0  0  0  0
  -43.0676   -2.5537   17.4930 C   0  0  0  0  0  0
  -51.6853    0.2891   12.8302 H   0  0  0  0  0  0
  -50.1410    1.8327   10.4754 H   0  0  0  0  0  0
  -47.1244    2.3841   10.6643 H   0  0  0  0  0  0
  1  7  1  0  0  0
  1  8  1  0  0  0
  2  9  1  0  0  0
  2 21  1  0  0  0
  3 14  1  0  0  0
  3 22  1  0  0  0
  4 15  1  0  0  0
  4 23  1  0  0  0
  5 10  2  0  0  0
  6  7  2  0  0  0
  6  9  1  0  0  0
  6 10  1  0  0  0
  7 13  1  0  0  0
  8 11  2  0  0  0
  8 12  1  0  0  0
  9 14  2  0  0  0
 10 11  1  0  0  0
 12 16  2  0  0  0
 12 17  1  0  0  0
 13 15  2  0  0  0
 14 15  1  0  0  0
 16 18  1  0  0  0
 17 19  2  0  0  0
 18 20  2  0  0  0
 19 20  1  0  0  0
M  END
>  <CHROM.0>
-59.37989583,57.12346158,-54.08023678

>  <CHROM.1>
-167.11632372,-176.53802504,-39.50105695,-17.31125797,-47.38609467,-0.54656744
14.39790953,-0.82464271,0.04873980,-1.05116707

>  <Name>
Baicalein.pdb

>  <RI>
-4.18311e+08

>  <Rbt.Current_Directory>
/root/miniconda3/envs/rdock/share/rxdock-2013.1.1_148c5bd1-0/data/ligands/prepped_ligands/Baicalein

>  <Rbt.Executable>
rbdock/0.1.0

>  <Rbt.Library>
librxdock.so/0.1.0

>  <Rbt.Parameter_File>
/root/miniconda3/envs/rdock/share/rxdock-2013.1.1_148c5bd1-0/data/scripts/dock.prm

>  <Rbt.Receptor>
def.prm

>  <SCORE>
-12.6143

>  <SCORE.INTER>
-13.4165

>  <SCORE.INTER.CONST>
1

>  <SCORE.INTER.POLAR>
-2.68493

>  <SCORE.INTER.REPUL>
0

>  <SCORE.INTER.ROT>
1

>  <SCORE.INTER.VDW>
-10.6877

>  <SCORE.INTER.norm>
-0.670823

>  <SCORE.INTRA>
1.23636

>  <SCORE.INTRA.DIHEDRAL>
1.41116

>  <SCORE.INTRA.DIHEDRAL.0>
1.23589

>  <SCORE.INTRA.POLAR>
0.122099

>  <SCORE.INTRA.POLAR.0>
-0.398182

>  <SCORE.INTRA.REPUL>
0

>  <SCORE.INTRA.REPUL.0>
0

>  <SCORE.INTRA.VDW>
0.115649

>  <SCORE.INTRA.VDW.0>
0.600462

>  <SCORE.INTRA.norm>
0.0618182

>  <SCORE.RESTR>
0.401627

>  <SCORE.RESTR.CAVITY>
0.401627

>  <SCORE.RESTR.norm>
0.0200813

>  <SCORE.SYSTEM>
-0.835796

>  <SCORE.SYSTEM.CONST>
0

>  <SCORE.SYSTEM.DIHEDRAL>
0.122467

>  <SCORE.SYSTEM.POLAR>
-0.0129124

>  <SCORE.SYSTEM.VDW>
-0.853128

>  <SCORE.SYSTEM.norm>
-0.0417898

>  <SCORE.heavy>
20

>  <SCORE.norm>
-0.630713

$$$$
Baicalein.pdb
  RxDock  02242112463D
librxdock.so/0.1.0
 23 25  0  0  0  0  0  0  0  0999 V2000
  -52.2222   -4.3009   15.2013 O   0  0  0  0  0  0
  -52.3461   -8.2371   18.0179 O   0  0  0  0  0  0
  -54.5071   -9.1282   16.6094 O   0  0  0  0  0  0
  -55.5263   -7.6319   14.5200 O   0  0  0  0  0  0
  -50.5669   -6.3497   18.3090 O   0  0  0  0  0  0
  -52.2391   -6.2550   16.6424 C   0  0  0  0  0  0
  -52.7551   -5.5034   15.5886 C   0  0  0  0  0  0
  -51.1274   -3.8095   15.8958 C   0  0  0  0  0  0
  -52.8227   -7.4750   16.9925 C   0  0  0  0  0  0
  -51.0719   -5.7415   17.3761 C   0  0  0  0  0  0
  -50.5371   -4.4417   16.9228 C   0  0  0  0  0  0
  -50.6311   -2.5121   15.3932 C   0  0  0  0  0  0
  -53.8604   -5.9694   14.8756 C   0  0  0  0  0  0
  -53.9289   -7.9384   16.2784 C   0  0  0  0  0  0
  -54.4456   -7.1868   15.2225 C   0  0  0  0  0  0
  -50.5312   -2.2836   14.0187 C   0  0  0  0  0  0
  -50.2581   -1.5080   16.2896 C   0  0  0  0  0  0
  -50.0625   -1.0588   13.5432 C   0  0  0  0  0  0
  -49.7897   -0.2826   15.8149 C   0  0  0  0  0  0
  -49.6916   -0.0585   14.4421 C   0  0  0  0  0  0
  -52.2508   -9.1625   17.7430 H   0  0  0  0  0  0
  -55.1778   -9.3419   15.9364 H   0  0  0  0  0  0
  -55.7582   -6.9578   13.8569 H   0  0  0  0  0  0
  1  7  1  0  0  0
  1  8  1  0  0  0
  2  9  1  0  0  0
  2 21  1  0  0  0
  3 14  1  0  0  0
  3 22  1  0  0  0
  4 15  1  0  0  0
  4 23  1  0  0  0
  5 10  2  0  0  0
  6  7  2  0  0  0
  6  9  1  0  0  0
  6 10  1  0  0  0
  7 13  1  0  0  0
  8 11  2  0  0  0
  8 12  1  0  0  0
  9 14  2  0  0  0
 10 11  1  0  0  0
 12 16  2  0  0  0
 12 17  1  0  0  0
 13 15  2  0  0  0
 14 15  1  0  0  0
 16 18  1  0  0  0
 17 19  2  0  0  0
 18 20  2  0  0  0
 19 20  1  0  0  0
M  END
>  <CHROM.0>
61.25448654,-64.63002501,-65.48566276

>  <CHROM.1>
-132.26178403,-172.47774131,-2.40094651,-42.50266112,-52.02056364,-5.02036877
15.92384169,0.88092824,-0.70893790,-0.69040801

>  <Name>
Baicalein.pdb

>  <RI>
-4.18311e+08

>  <Rbt.Current_Directory>
/root/miniconda3/envs/rdock/share/rxdock-2013.1.1_148c5bd1-0/data/ligands/prepped_ligands/Baicalein

>  <Rbt.Executable>
rbdock/0.1.0

>  <Rbt.Library>
librxdock.so/0.1.0

>  <Rbt.Parameter_File>
/root/miniconda3/envs/rdock/share/rxdock-2013.1.1_148c5bd1-0/data/scripts/dock.prm

>  <Rbt.Receptor>
def.prm

>  <SCORE>
-11.2717

>  <SCORE.INTER>
-12.5614

>  <SCORE.INTER.CONST>
1

>  <SCORE.INTER.POLAR>
-0.938083

>  <SCORE.INTER.REPUL>
0.0119038

>  <SCORE.INTER.ROT>
1

>  <SCORE.INTER.VDW>
-15.8314

>  <SCORE.INTER.norm>
-0.628069

>  <SCORE.INTRA>
2.314

>  <SCORE.INTRA.DIHEDRAL>
3.71265

>  <SCORE.INTRA.DIHEDRAL.0>
1.23589

>  <SCORE.INTRA.POLAR>
0.226003

>  <SCORE.INTRA.POLAR.0>
-0.398182

>  <SCORE.INTRA.REPUL>
0

>  <SCORE.INTRA.REPUL.0>
0

>  <SCORE.INTRA.VDW>
-0.310733

>  <SCORE.INTRA.VDW.0>
0.600462

>  <SCORE.INTRA.norm>
0.1157

>  <SCORE.RESTR>
0

>  <SCORE.RESTR.CAVITY>
0

>  <SCORE.RESTR.norm>
0

>  <SCORE.SYSTEM>
-1.02433

>  <SCORE.SYSTEM.CONST>
0

>  <SCORE.SYSTEM.DIHEDRAL>
0.186576

>  <SCORE.SYSTEM.VDW>
-1.11762

>  <SCORE.SYSTEM.norm>
-0.0512167

>  <SCORE.heavy>
20

>  <SCORE.norm>
-0.563586

$$$$
Baicalein.pdb
  RxDock  02242112463D
librxdock.so/0.1.0
 23 25  0  0  0  0  0  0  0  0999 V2000
  -50.4291   -0.7675   13.3493 O   0  0  0  0  0  0
  -48.6439   -4.5698   15.7572 O   0  0  0  0  0  0
  -51.1683   -5.5913   15.9358 O   0  0  0  0  0  0
  -53.3084   -4.2262   14.8406 O   0  0  0  0  0  0
  -47.1436   -2.6173   14.8916 O   0  0  0  0  0  0
  -49.4816   -2.6517   14.5524 C   0  0  0  0  0  0
  -50.5624   -1.9663   14.0013 C   0  0  0  0  0  0
  -49.1637   -0.2109   13.2427 C   0  0  0  0  0  0
  -49.6768   -3.8714   15.2051 C   0  0  0  0  0  0
  -48.1360   -2.0691   14.4336 C   0  0  0  0  0  0
  -48.0457   -0.7761   13.7257 C   0  0  0  0  0  0
  -49.1334    1.0762   12.5184 C   0  0  0  0  0  0
  -51.8486   -2.4987   14.0987 C   0  0  0  0  0  0
  -50.9645   -4.4012   15.3022 C   0  0  0  0  0  0
  -52.0471   -3.7159   14.7498 C   0  0  0  0  0  0
  -50.1295    2.0301   12.7404 C   0  0  0  0  0  0
  -48.1095    1.3453   11.6073 C   0  0  0  0  0  0
  -50.1018    3.2457   12.0567 C   0  0  0  0  0  0
  -48.0808    2.5610   10.9235 C   0  0  0  0  0  0
  -49.0770    3.5106   11.1480 C   0  0  0  0  0  0
  -48.9440   -5.4378   16.0694 H   0  0  0  0  0  0
  -52.1215   -5.7900   15.9177 H   0  0  0  0  0  0
  -53.8896   -3.7098   14.2544 H   0  0  0  0  0  0
  1  7  1  0  0  0
  1  8  1  0  0  0
  2  9  1  0  0  0
  2 21  1  0  0  0
  3 14  1  0  0  0
  3 22  1  0  0  0
  4 15  1  0  0  0
  4 23  1  0  0  0
  5 10  2  0  0  0
  6  7  2  0  0  0
  6  9  1  0  0  0
  6 10  1  0  0  0
  7 13  1  0  0  0
  8 11  2  0  0  0
  8 12  1  0  0  0
  9 14  2  0  0  0
 10 11  1  0  0  0
 12 16  2  0  0  0
 12 17  1  0  0  0
 13 15  2  0  0  0
 14 15  1  0  0  0
 16 18  1  0  0  0
 17 19  2  0  0  0
 18 20  2  0  0  0
 19 20  1  0  0  0
M  END
>  <CHROM.0>
-63.02021551,-64.00330501,58.31434395

>  <CHROM.1>
-173.03861673,179.02221841,11.16387721,41.36741727,-49.80049238,-1.44578848
13.82399707,1.32703894,-0.06909791,-0.49780384

>  <Name>
Baicalein.pdb

>  <RI>
-4.18311e+08

>  <Rbt.Current_Directory>
/root/miniconda3/envs/rdock/share/rxdock-2013.1.1_148c5bd1-0/data/ligands/prepped_ligands/Baicalein

>  <Rbt.Executable>
rbdock/0.1.0

>  <Rbt.Library>
librxdock.so/0.1.0

>  <Rbt.Parameter_File>
/root/miniconda3/envs/rdock/share/rxdock-2013.1.1_148c5bd1-0/data/scripts/dock.prm

>  <Rbt.Receptor>
def.prm

>  <SCORE>
-21.7025

>  <SCORE.INTER>
-21.3193

>  <SCORE.INTER.CONST>
1

>  <SCORE.INTER.POLAR>
-1.24824

>  <SCORE.INTER.REPUL>
0

>  <SCORE.INTER.ROT>
1

>  <SCORE.INTER.VDW>
-23.4753

>  <SCORE.INTER.norm>
-1.06597

>  <SCORE.INTRA>
0.658655

>  <SCORE.INTRA.DIHEDRAL>
1.07562

>  <SCORE.INTRA.DIHEDRAL.0>
1.23589

>  <SCORE.INTRA.POLAR>
0.0541866

>  <SCORE.INTRA.POLAR.0>
-0.398182

>  <SCORE.INTRA.REPUL>
0

>  <SCORE.INTRA.REPUL.0>
0

>  <SCORE.INTRA.VDW>
-0.0633905

>  <SCORE.INTRA.VDW.0>
0.600462

>  <SCORE.INTRA.norm>
0.0329327

>  <SCORE.RESTR>
0

>  <SCORE.RESTR.CAVITY>
0

>  <SCORE.RESTR.norm>
0

>  <SCORE.SYSTEM>
-1.04184

>  <SCORE.SYSTEM.CONST>
0

>  <SCORE.SYSTEM.DIHEDRAL>
0.11206

>  <SCORE.SYSTEM.VDW>
-1.09787

>  <SCORE.SYSTEM.norm>
-0.0520921

>  <SCORE.heavy>
20

>  <SCORE.norm>
-1.08513

$$$$
Baicalein.pdb
  RxDock  02242112463D
librxdock.so/0.1.0
 23 25  0  0  0  0  0  0  0  0999 V2000
  -49.9250    0.1843   15.2614 O   0  0  0  0  0  0
  -52.3360   -3.7170   16.8136 O   0  0  0  0  0  0
  -51.9377   -2.8912   19.3840 O   0  0  0  0  0  0
  -50.5485   -0.5578   19.9022 O   0  0  0  0  0  0
  -51.9426   -3.2165   14.2823 O   0  0  0  0  0  0
  -51.1416   -1.7882   15.9856 C   0  0  0  0  0  0
  -50.4420   -0.6125   16.2502 C   0  0  0  0  0  0
  -50.0997   -0.2035   13.9417 C   0  0  0  0  0  0
  -51.6476   -2.5607   17.0338 C   0  0  0  0  0  0
  -51.3371   -2.1986   14.5864 C   0  0  0  0  0  0
  -50.7590   -1.3089   13.5592 C   0  0  0  0  0  0
  -49.5087    0.7279   12.9593 C   0  0  0  0  0  0
  -50.2449   -0.2003   17.5686 C   0  0  0  0  0  0
  -51.4481   -2.1468   18.3518 C   0  0  0  0  0  0
  -50.7484   -0.9692   18.6176 C   0  0  0  0  0  0
  -50.2035    1.8776   12.5759 C   0  0  0  0  0  0
  -48.2529    0.4633   12.4081 C   0  0  0  0  0  0
  -49.6463    2.7576   11.6481 C   0  0  0  0  0  0
  -47.6947    1.3432   11.4804 C   0  0  0  0  0  0
  -48.3915    2.4897   11.1004 C   0  0  0  0  0  0
  -52.5824   -4.1355   17.6532 H   0  0  0  0  0  0
  -51.7554   -2.4199   20.2166 H   0  0  0  0  0  0
  -49.9906    0.2399   19.8841 H   0  0  0  0  0  0
  1  7  1  0  0  0
  1  8  1  0  0  0
  2  9  1  0  0  0
  2 21  1  0  0  0
  3 14  1  0  0  0
  3 22  1  0  0  0
  4 15  1  0  0  0
  4 23  1  0  0  0
  5 10  2  0  0  0
  6  7  2  0  0  0
  6  9  1  0  0  0
  6 10  1  0  0  0
  7 13  1  0  0  0
  8 11  2  0  0  0
  8 12  1  0  0  0
  9 14  2  0  0  0
 10 11  1  0  0  0
 12 16  2  0  0  0
 12 17  1  0  0  0
 13 15  2  0  0  0
 14 15  1  0  0  0
 16 18  1  0  0  0
 17 19  2  0  0  0
 18 20  2  0  0  0
 19 20  1  0  0  0
M  END
>  <CHROM.0>
-176.99290624,-175.86320933,178.80452202

>  <CHROM.1>
177.92890730,-176.25711015,-4.02162165,-81.97088729,-50.46388825,-0.70318834
15.31491354,-0.87221288,1.04349890,1.48141803

>  <Name>
Baicalein.pdb

>  <RI>
-4.18311e+08

>  <Rbt.Current_Directory>
/root/miniconda3/envs/rdock/share/rxdock-2013.1.1_148c5bd1-0/data/ligands/prepped_ligands/Baicalein

>  <Rbt.Executable>
rbdock/0.1.0

>  <Rbt.Library>
librxdock.so/0.1.0

>  <Rbt.Parameter_File>
/root/miniconda3/envs/rdock/share/rxdock-2013.1.1_148c5bd1-0/data/scripts/dock.prm

>  <Rbt.Receptor>
def.prm

>  <SCORE>
-12.7569

>  <SCORE.INTER>
-13.0888

>  <SCORE.INTER.CONST>
1

>  <SCORE.INTER.POLAR>
-0.0469404

>  <SCORE.INTER.REPUL>
0

>  <SCORE.INTER.ROT>
1

>  <SCORE.INTER.VDW>
-19.3292

>  <SCORE.INTER.norm>
-0.654439

>  <SCORE.INTRA>
1.37564

>  <SCORE.INTRA.DIHEDRAL>
3.53016

>  <SCORE.INTRA.DIHEDRAL.0>
1.23589

>  <SCORE.INTRA.POLAR>
0.0431511

>  <SCORE.INTRA.POLAR.0>
-0.398182

>  <SCORE.INTRA.REPUL>
0

>  <SCORE.INTRA.REPUL.0>
0

>  <SCORE.INTRA.VDW>
-0.536155

>  <SCORE.INTRA.VDW.0>
0.600462

>  <SCORE.INTRA.norm>
0.068782

>  <SCORE.RESTR>
0.00396644

>  <SCORE.RESTR.CAVITY>
0.00396644

>  <SCORE.RESTR.norm>
0.000198322

>  <SCORE.SYSTEM>
-1.04776

>  <SCORE.SYSTEM.CONST>
0

>  <SCORE.SYSTEM.DIHEDRAL>
0.108871

>  <SCORE.SYSTEM.VDW>
-1.10219

>  <SCORE.SYSTEM.norm>
-0.0523878

>  <SCORE.heavy>
20

>  <SCORE.norm>
-0.637846

$$$$
Baicalein.pdb
  RxDock  02242112463D
librxdock.so/0.1.0
 23 25  0  0  0  0  0  0  0  0999 V2000
  -49.3449   -1.3566   18.1555 O   0  0  0  0  0  0
  -51.0082   -1.3026   13.6088 O   0  0  0  0  0  0
  -52.9503   -3.0748   14.3405 O   0  0  0  0  0  0
  -53.0984   -3.9881   16.9457 O   0  0  0  0  0  0
  -48.9529    0.1115   14.3758 O   0  0  0  0  0  0
  -50.1378   -1.2926   15.8615 C   0  0  0  0  0  0
  -50.2154   -1.7546   17.1738 C   0  0  0  0  0  0
  -48.3391   -0.4619   17.8233 C   0  0  0  0  0  0
  -51.0535   -1.7319   14.9022 C   0  0  0  0  0  0
  -49.0778   -0.3361   15.5069 C   0  0  0  0  0  0
  -48.1643    0.0587   16.5981 C   0  0  0  0  0  0
  -47.4627   -0.0971   18.9550 C   0  0  0  0  0  0
  -51.2130   -2.6606   17.5361 C   0  0  0  0  0  0
  -52.0498   -2.6390   15.2670 C   0  0  0  0  0  0
  -52.1286   -3.1015   16.5810 C   0  0  0  0  0  0
  -46.5637    0.9652   18.8324 C   0  0  0  0  0  0
  -47.5275   -0.8130   20.1525 C   0  0  0  0  0  0
  -45.7355    1.3104   19.9005 C   0  0  0  0  0  0
  -46.6998   -0.4681   21.2214 C   0  0  0  0  0  0
  -45.8040    0.5930   21.0951 C   0  0  0  0  0  0
  -50.2600   -0.7005   13.4725 H   0  0  0  0  0  0
  -52.8245   -2.5600   13.5234 H   0  0  0  0  0  0
  -53.7276   -3.5292   17.5301 H   0  0  0  0  0  0
  1  7  1  0  0  0
  1  8  1  0  0  0
  2  9  1  0  0  0
  2 21  1  0  0  0
  3 14  1  0  0  0
  3 22  1  0  0  0
  4 15  1  0  0  0
  4 23  1  0  0  0
  5 10  2  0  0  0
  6  7  2  0  0  0
  6  9  1  0  0  0
  6 10  1  0  0  0
  7 13  1  0  0  0
  8 11  2  0  0  0
  8 12  1  0  0  0
  9 14  2  0  0  0
 10 11  1  0  0  0
 12 16  2  0  0  0
 12 17  1  0  0  0
 13 15  2  0  0  0
 14 15  1  0  0  0
 16 18  1  0  0  0
 17 19  2  0  0  0
 18 20  2  0  0  0
 19 20  1  0  0  0
M  END
>  <CHROM.0>
-59.73328962,-62.53885613,-64.59908541

>  <CHROM.1>
1.75626081,-7.77674327,69.56087159,-168.56332043,-49.48186165,-1.15051069
17.13980512,0.48548326,0.66175658,1.88646861

>  <Name>
Baicalein.pdb

>  <RI>
-4.18311e+08

>  <Rbt.Current_Directory>
/root/miniconda3/envs/rdock/share/rxdock-2013.1.1_148c5bd1-0/data/ligands/prepped_ligands/Baicalein

>  <Rbt.Executable>
rbdock/0.1.0

>  <Rbt.Library>
librxdock.so/0.1.0

>  <Rbt.Parameter_File>
/root/miniconda3/envs/rdock/share/rxdock-2013.1.1_148c5bd1-0/data/scripts/dock.prm

>  <Rbt.Receptor>
def.prm

>  <SCORE>
-8.1661

>  <SCORE.INTER>
-9.54685

>  <SCORE.INTER.CONST>
1

>  <SCORE.INTER.POLAR>
-1.56648

>  <SCORE.INTER.REPUL>
0.1409

>  <SCORE.INTER.ROT>
1

>  <SCORE.INTER.VDW>
-11.3253

>  <SCORE.INTER.norm>
-0.477342

>  <SCORE.INTRA>
2.44482

>  <SCORE.INTRA.DIHEDRAL>
3.24579

>  <SCORE.INTRA.DIHEDRAL.0>
1.23589

>  <SCORE.INTRA.POLAR>
0.19998

>  <SCORE.INTRA.POLAR.0>
-0.398182

>  <SCORE.INTRA.REPUL>
0

>  <SCORE.INTRA.REPUL.0>
0

>  <SCORE.INTRA.VDW>
0.141988

>  <SCORE.INTRA.VDW.0>
0.600462

>  <SCORE.INTRA.norm>
0.122241

>  <SCORE.RESTR>
0

>  <SCORE.RESTR.CAVITY>
0

>  <SCORE.RESTR.norm>
0

>  <SCORE.SYSTEM>
-1.06407

>  <SCORE.SYSTEM.CONST>
0

>  <SCORE.SYSTEM.DIHEDRAL>
0.0875907

>  <SCORE.SYSTEM.VDW>
-1.10786

>  <SCORE.SYSTEM.norm>
-0.0532033

>  <SCORE.heavy>
20

>  <SCORE.norm>
-0.408305

$$$$
Baicalein.pdb
  RxDock  02242112473D
librxdock.so/0.1.0
 23 25  0  0  0  0  0  0  0  0999 V2000
  -47.5812   -4.4450   16.3935 O   0  0  0  0  0  0
  -52.0233   -6.3604   16.1910 O   0  0  0  0  0  0
  -51.1703   -8.4065   17.7828 O   0  0  0  0  0  0
  -48.5548   -8.4853   18.6749 O   0  0  0  0  0  0
  -51.3876   -4.1403   14.9746 O   0  0  0  0  0  0
  -49.8253   -5.3622   16.2587 C   0  0  0  0  0  0
  -48.5077   -5.4048   16.7103 C   0  0  0  0  0  0
  -47.9726   -3.3918   15.5812 C   0  0  0  0  0  0
  -50.7272   -6.3681   16.6145 C   0  0  0  0  0  0
  -50.2471   -4.2416   15.4040 C   0  0  0  0  0  0
  -49.2122   -3.2363   15.0892 C   0  0  0  0  0  0
  -46.8996   -2.4142   15.3075 C   0  0  0  0  0  0
  -48.0832   -6.4560   17.5238 C   0  0  0  0  0  0
  -50.2997   -7.4191   17.4275 C   0  0  0  0  0  0
  -48.9808   -7.4619   17.8808 C   0  0  0  0  0  0
  -45.6241   -2.8548   14.9461 C   0  0  0  0  0  0
  -47.1544   -1.0447   15.4099 C   0  0  0  0  0  0
  -44.6101   -1.9323   14.6876 C   0  0  0  0  0  0
  -46.1409   -0.1215   15.1512 C   0  0  0  0  0  0
  -44.8693   -0.5654   14.7906 C   0  0  0  0  0  0
  -52.2119   -7.1414   15.6475 H   0  0  0  0  0  0
  -52.0264   -8.2311   17.3528 H   0  0  0  0  0  0
  -49.3139   -9.0673   18.8565 H   0  0  0  0  0  0
  1  7  1  0  0  0
  1  8  1  0  0  0
  2  9  1  0  0  0
  2 21  1  0  0  0
  3 14  1  0  0  0
  3 22  1  0  0  0
  4 15  1  0  0  0
  4 23  1  0  0  0
  5 10  2  0  0  0
  6  7  2  0  0  0
  6  9  1  0  0  0
  6 10  1  0  0  0
  7 13  1  0  0  0
  8 11  2  0  0  0
  8 12  1  0  0  0
  9 14  2  0  0  0
 10 11  1  0  0  0
 12 16  2  0  0  0
 12 17  1  0  0  0
 13 15  2  0  0  0
 14 15  1  0  0  0
 16 18  1  0  0  0
 17 19  2  0  0  0
 18 20  2  0  0  0
 19 20  1  0  0  0
M  END
>  <CHROM.0>
176.67380258,-63.72053522,179.10740576

>  <CHROM.1>
118.19544915,2.13068825,177.36649563,45.90180394,-48.59410957,-4.62658744
16.18169037,-0.94765938,0.21349561,2.61511905

>  <Name>
Baicalein.pdb

>  <RI>
-4.18311e+08

>  <Rbt.Current_Directory>
/root/miniconda3/envs/rdock/share/rxdock-2013.1.1_148c5bd1-0/data/ligands/prepped_ligands/Baicalein

>  <Rbt.Executable>
rbdock/0.1.0

>  <Rbt.Library>
librxdock.so/0.1.0

>  <Rbt.Parameter_File>
/root/miniconda3/envs/rdock/share/rxdock-2013.1.1_148c5bd1-0/data/scripts/dock.prm

>  <Rbt.Receptor>
def.prm

>  <SCORE>
-11.5346

>  <SCORE.INTER>
-13.0107

>  <SCORE.INTER.CONST>
1

>  <SCORE.INTER.POLAR>
-0.847114

>  <SCORE.INTER.REPUL>
0.022997

>  <SCORE.INTER.ROT>
1

>  <SCORE.INTER.VDW>
-16.6455

>  <SCORE.INTER.norm>
-0.650535

>  <SCORE.INTRA>
2.53395

>  <SCORE.INTRA.DIHEDRAL>
4.94651

>  <SCORE.INTRA.DIHEDRAL.0>
1.23589

>  <SCORE.INTRA.POLAR>
0.218082

>  <SCORE.INTRA.POLAR.0>
-0.398182

>  <SCORE.INTRA.REPUL>
0

>  <SCORE.INTRA.REPUL.0>
0

>  <SCORE.INTRA.VDW>
-0.680782

>  <SCORE.INTRA.VDW.0>
0.600462

>  <SCORE.INTRA.norm>
0.126698

>  <SCORE.RESTR>
0

>  <SCORE.RESTR.CAVITY>
0

>  <SCORE.RESTR.norm>
0

>  <SCORE.SYSTEM>
-1.0578

>  <SCORE.SYSTEM.CONST>
0

>  <SCORE.SYSTEM.DIHEDRAL>
0.100662

>  <SCORE.SYSTEM.VDW>
-1.10813

>  <SCORE.SYSTEM.norm>
-0.05289

>  <SCORE.heavy>
20

>  <SCORE.norm>
-0.576728

$$$$
