Baicalein.pdb
  RxDock  02242110253D
librxdock.so/0.1.0
 23 25  0  0  0  0  0  0  0  0999 V2000
  -47.6017    0.3236   13.7733 O   0  0  0  0  0  0
  -48.2859   -3.8416   16.1451 O   0  0  0  0  0  0
  -45.6721   -3.7794   16.9274 O   0  0  0  0  0  0
  -44.0295   -1.6971   16.1469 O   0  0  0  0  0  0
  -50.1869   -2.6480   14.8131 O   0  0  0  0  0  0
  -47.9992   -1.7653   14.9456 C   0  0  0  0  0  0
  -47.1687   -0.7171   14.5541 C   0  0  0  0  0  0
  -48.9216    0.3261   13.3489 C   0  0  0  0  0  0
  -47.5037   -2.7995   15.7435 C   0  0  0  0  0  0
  -49.4028   -1.7617   14.5050 C   0  0  0  0  0  0
  -49.8192   -0.6215   13.6638 C   0  0  0  0  0  0
  -49.2828    1.4935   12.5190 C   0  0  0  0  0  0
  -45.8340   -0.6960   14.9605 C   0  0  0  0  0  0
  -46.1679   -2.7766   16.1477 C   0  0  0  0  0  0
  -45.3359   -1.7269   15.7569 C   0  0  0  0  0  0
  -50.5627    2.0467   12.6050 C   0  0  0  0  0  0
  -48.3471    2.0493   11.6436 C   0  0  0  0  0  0
  -50.9048    3.1490   11.8216 C   0  0  0  0  0  0
  -48.6883    3.1520   10.8600 C   0  0  0  0  0  0
  -49.9668    3.7013   10.9489 C   0  0  0  0  0  0
  -49.1728   -3.7749   15.7579 H   0  0  0  0  0  0
  -44.8484   -3.4673   17.3429 H   0  0  0  0  0  0
  -43.6702   -2.5995   16.0799 H   0  0  0  0  0  0
  1  7  1  0  0  0
  1  8  1  0  0  0
  2  9  1  0  0  0
  2 21  1  0  0  0
  3 14  1  0  0  0
  3 22  1  0  0  0
  4 15  1  0  0  0
  4 23  1  0  0  0
  5 10  2  0  0  0
  6  7  2  0  0  0
  6  9  1  0  0  0
  6 10  1  0  0  0
  7 13  1  0  0  0
  8 11  2  0  0  0
  8 12  1  0  0  0
  9 14  2  0  0  0
 10 11  1  0  0  0
 12 16  2  0  0  0
 12 17  1  0  0  0
 13 15  2  0  0  0
 14 15  1  0  0  0
 16 18  1  0  0  0
 17 19  2  0  0  0
 18 20  2  0  0  0
 19 20  1  0  0  0
M  END
>  <CHROM.0>
58.55404738,61.00078855,54.14382503

>  <CHROM.1>
3.49246667,-161.80023060,-138.91756633,-145.35683202,-48.01916181,-0.54264742
14.18045024,-2.04597014,0.20172171,2.55944209

>  <Name>
Baicalein.pdb

>  <RI>
-1.21377e+09

>  <Rbt.Current_Directory>
/root/miniconda3/envs/rdock/share/rxdock-2013.1.1_148c5bd1-0/data/ligands/prepped_ligands/Baicalein

>  <Rbt.Executable>
rbdock/0.1.0

>  <Rbt.Library>
librxdock.so/0.1.0

>  <Rbt.Parameter_File>
/root/miniconda3/envs/rdock/share/rxdock-2013.1.1_148c5bd1-0/data/scripts/dock.prm

>  <Rbt.Receptor>
def.prm

>  <SCORE>
-14.0457

>  <SCORE.INTER>
-15.8316

>  <SCORE.INTER.CONST>
1

>  <SCORE.INTER.POLAR>
-0.673501

>  <SCORE.INTER.REPUL>
0

>  <SCORE.INTER.ROT>
1

>  <SCORE.INTER.VDW>
-19.9417

>  <SCORE.INTER.norm>
-0.79158

>  <SCORE.INTRA>
2.73808

>  <SCORE.INTRA.DIHEDRAL>
2.83595

>  <SCORE.INTRA.DIHEDRAL.0>
1.23589

>  <SCORE.INTRA.POLAR>
0.398182

>  <SCORE.INTRA.POLAR.0>
-0.398182

>  <SCORE.INTRA.REPUL>
0

>  <SCORE.INTRA.REPUL.0>
0

>  <SCORE.INTRA.VDW>
-0.0337181

>  <SCORE.INTRA.VDW.0>
0.600462

>  <SCORE.INTRA.norm>
0.136904

>  <SCORE.RESTR>
0

>  <SCORE.RESTR.CAVITY>
0

>  <SCORE.RESTR.norm>
0

>  <SCORE.SYSTEM>
-0.952132

>  <SCORE.SYSTEM.CONST>
0

>  <SCORE.SYSTEM.DIHEDRAL>
0.100021

>  <SCORE.SYSTEM.VDW>
-1.00214

>  <SCORE.SYSTEM.norm>
-0.0476066

>  <SCORE.heavy>
20

>  <SCORE.norm>
-0.702283

$$$$
Baicalein.pdb
  RxDock  02242110253D
librxdock.so/0.1.0
 23 25  0  0  0  0  0  0  0  0999 V2000
  -47.8481   -0.8528   14.4595 O   0  0  0  0  0  0
  -49.6512   -4.8936   16.4249 O   0  0  0  0  0  0
  -47.3570   -5.1629   17.8782 O   0  0  0  0  0  0
  -45.3222   -3.3074   17.6331 O   0  0  0  0  0  0
  -50.9623   -3.4701   14.6735 O   0  0  0  0  0  0
  -48.7997   -2.8723   15.4140 C   0  0  0  0  0  0
  -47.7723   -1.9388   15.2930 C   0  0  0  0  0  0
  -48.9945   -0.6831   13.6984 C   0  0  0  0  0  0
  -48.6679   -3.9599   16.2809 C   0  0  0  0  0  0
  -50.0216   -2.6911   14.6151 C   0  0  0  0  0  0
  -50.0530   -1.5085   13.7310 C   0  0  0  0  0  0
  -48.9730    0.5195   12.8409 C   0  0  0  0  0  0
  -46.6039   -2.0869   16.0415 C   0  0  0  0  0  0
  -47.4977   -4.1064   17.0277 C   0  0  0  0  0  0
  -46.4689   -3.1715   16.9077 C   0  0  0  0  0  0
  -47.8837    0.7631   12.0009 C   0  0  0  0  0  0
  -50.0408    1.4194   12.8665 C   0  0  0  0  0  0
  -47.8624    1.8986   11.1909 C   0  0  0  0  0  0
  -50.0205    2.5551   12.0564 C   0  0  0  0  0  0
  -48.9314    2.7946   11.2193 C   0  0  0  0  0  0
  -49.4728   -5.4658   17.1876 H   0  0  0  0  0  0
  -47.6208   -5.9737   17.4076 H   0  0  0  0  0  0
  -44.5905   -3.4879   17.0167 H   0  0  0  0  0  0
  1  7  1  0  0  0
  1  8  1  0  0  0
  2  9  1  0  0  0
  2 21  1  0  0  0
  3 14  1  0  0  0
  3 22  1  0  0  0
  4 15  1  0  0  0
  4 23  1  0  0  0
  5 10  2  0  0  0
  6  7  2  0  0  0
  6  9  1  0  0  0
  6 10  1  0  0  0
  7 13  1  0  0  0
  8 11  2  0  0  0
  8 12  1  0  0  0
  9 14  2  0  0  0
 10 11  1  0  0  0
 12 16  2  0  0  0
 12 17  1  0  0  0
 13 15  2  0  0  0
 14 15  1  0  0  0
 16 18  1  0  0  0
 17 19  2  0  0  0
 18 20  2  0  0  0
 19 20  1  0  0  0
M  END
>  <CHROM.0>
53.61185804,60.17572721,-174.46684938

>  <CHROM.1>
-168.40335682,47.31615462,-66.53267003,50.98133526,-48.46086382,-1.66189083
14.71066784,-1.76947424,0.34006058,2.50045519

>  <Name>
Baicalein.pdb

>  <RI>
-1.21377e+09

>  <Rbt.Current_Directory>
/root/miniconda3/envs/rdock/share/rxdock-2013.1.1_148c5bd1-0/data/ligands/prepped_ligands/Baicalein

>  <Rbt.Executable>
rbdock/0.1.0

>  <Rbt.Library>
librxdock.so/0.1.0

>  <Rbt.Parameter_File>
/root/miniconda3/envs/rdock/share/rxdock-2013.1.1_148c5bd1-0/data/scripts/dock.prm

>  <Rbt.Receptor>
def.prm

>  <SCORE>
-14.3617

>  <SCORE.INTER>
-18.2716

>  <SCORE.INTER.CONST>
1

>  <SCORE.INTER.POLAR>
-0.919013

>  <SCORE.INTER.REPUL>
0

>  <SCORE.INTER.ROT>
1

>  <SCORE.INTER.VDW>
-21.547

>  <SCORE.INTER.norm>
-0.913581

>  <SCORE.INTRA>
4.80344

>  <SCORE.INTRA.DIHEDRAL>
8.45054

>  <SCORE.INTRA.DIHEDRAL.0>
1.23589

>  <SCORE.INTRA.POLAR>
0.398182

>  <SCORE.INTRA.POLAR.0>
-0.398182

>  <SCORE.INTRA.REPUL>
0

>  <SCORE.INTRA.REPUL.0>
0

>  <SCORE.INTRA.VDW>
-0.775647

>  <SCORE.INTRA.VDW.0>
0.600462

>  <SCORE.INTRA.norm>
0.240172

>  <SCORE.RESTR>
0

>  <SCORE.RESTR.CAVITY>
0

>  <SCORE.RESTR.norm>
0

>  <SCORE.SYSTEM>
-0.893562

>  <SCORE.SYSTEM.CONST>
0

>  <SCORE.SYSTEM.DIHEDRAL>
0.175298

>  <SCORE.SYSTEM.POLAR>
-0.0130219

>  <SCORE.SYSTEM.VDW>
-0.936937

>  <SCORE.SYSTEM.norm>
-0.0446781

>  <SCORE.heavy>
20

>  <SCORE.norm>
-0.718087

$$$$
Baicalein.pdb
  RxDock  02242110253D
librxdock.so/0.1.0
 23 25  0  0  0  0  0  0  0  0999 V2000
  -46.4476   -0.4927   14.1405 O   0  0  0  0  0  0
  -51.2028    0.1700   13.5150 O   0  0  0  0  0  0
  -50.6674    1.5672   11.2327 O   0  0  0  0  0  0
  -48.0567    1.9403   10.4031 O   0  0  0  0  0  0
  -50.2170   -1.1564   15.5354 O   0  0  0  0  0  0
  -48.8419   -0.1897   13.8748 C   0  0  0  0  0  0
  -47.5272   -0.0001   13.4538 C   0  0  0  0  0  0
  -46.6762   -1.2028   15.3092 C   0  0  0  0  0  0
  -49.9039    0.3344   13.1338 C   0  0  0  0  0  0
  -49.0894   -0.9504   15.1095 C   0  0  0  0  0  0
  -47.8943   -1.4569   15.8138 C   0  0  0  0  0  0
  -45.4461   -1.6915   15.9648 C   0  0  0  0  0  0
  -47.2659    0.7159   12.2849 C   0  0  0  0  0  0
  -49.6398    1.0513   11.9656 C   0  0  0  0  0  0
  -48.3236    1.2409   11.5429 C   0  0  0  0  0  0
  -45.4993   -2.2061   17.2625 C   0  0  0  0  0  0
  -44.2236   -1.6404   15.2913 C   0  0  0  0  0  0
  -44.3381   -2.6677   17.8825 C   0  0  0  0  0  0
  -43.0618   -2.1022   15.9106 C   0  0  0  0  0  0
  -43.1193   -2.6153   17.2058 C   0  0  0  0  0  0
  -51.2986   -0.6128   14.0799 H   0  0  0  0  0  0
  -50.4237    1.5272   10.2906 H   0  0  0  0  0  0
  -48.8855    2.3459   10.0925 H   0  0  0  0  0  0
  1  7  1  0  0  0
  1  8  1  0  0  0
  2  9  1  0  0  0
  2 21  1  0  0  0
  3 14  1  0  0  0
  3 22  1  0  0  0
  4 15  1  0  0  0
  4 23  1  0  0  0
  5 10  2  0  0  0
  6  7  2  0  0  0
  6  9  1  0  0  0
  6 10  1  0  0  0
  7 13  1  0  0  0
  8 11  2  0  0  0
  8 12  1  0  0  0
  9 14  2  0  0  0
 10 11  1  0  0  0
 12 16  2  0  0  0
 12 17  1  0  0  0
 13 15  2  0  0  0
 14 15  1  0  0  0
 16 18  1  0  0  0
 17 19  2  0  0  0
 18 20  2  0  0  0
 19 20  1  0  0  0
M  END
>  <CHROM.0>
-59.80514235,177.45855068,-179.29610720

>  <CHROM.1>
-23.94040076,-145.61581126,-171.36220435,168.36877325,-47.48697218,-0.50710404
14.25010961,-0.81174054,0.06451982,-1.02915609

>  <Name>
Baicalein.pdb

>  <RI>
-1.21377e+09

>  <Rbt.Current_Directory>
/root/miniconda3/envs/rdock/share/rxdock-2013.1.1_148c5bd1-0/data/ligands/prepped_ligands/Baicalein

>  <Rbt.Executable>
rbdock/0.1.0

>  <Rbt.Library>
librxdock.so/0.1.0

>  <Rbt.Parameter_File>
/root/miniconda3/envs/rdock/share/rxdock-2013.1.1_148c5bd1-0/data/scripts/dock.prm

>  <Rbt.Receptor>
def.prm

>  <SCORE>
-6.93506

>  <SCORE.INTER>
-9.51677

>  <SCORE.INTER.CONST>
1

>  <SCORE.INTER.POLAR>
-1.51476

>  <SCORE.INTER.REPUL>
0.00882785

>  <SCORE.INTER.ROT>
1

>  <SCORE.INTER.VDW>
-10.8107

>  <SCORE.INTER.norm>
-0.475839

>  <SCORE.INTRA>
3.35046

>  <SCORE.INTRA.DIHEDRAL>
1.39891

>  <SCORE.INTRA.DIHEDRAL.0>
1.23589

>  <SCORE.INTRA.POLAR>
0.398182

>  <SCORE.INTRA.POLAR.0>
-0.398182

>  <SCORE.INTRA.REPUL>
0

>  <SCORE.INTRA.REPUL.0>
0

>  <SCORE.INTRA.VDW>
1.29719

>  <SCORE.INTRA.VDW.0>
0.600462

>  <SCORE.INTRA.norm>
0.167523

>  <SCORE.RESTR>
0.332863

>  <SCORE.RESTR.CAVITY>
0.332863

>  <SCORE.RESTR.norm>
0.0166431

>  <SCORE.SYSTEM>
-1.10161

>  <SCORE.SYSTEM.CONST>
0

>  <SCORE.SYSTEM.DIHEDRAL>
0.0326257

>  <SCORE.SYSTEM.POLAR>
-0.00371439

>  <SCORE.SYSTEM.VDW>
-1.1053

>  <SCORE.SYSTEM.norm>
-0.0550806

>  <SCORE.heavy>
20

>  <SCORE.norm>
-0.346753

$$$$
Baicalein.pdb
  RxDock  02242110253D
librxdock.so/0.1.0
 23 25  0  0  0  0  0  0  0  0999 V2000
  -52.8381   -4.3136   14.9147 O   0  0  0  0  0  0
  -50.9819   -1.0035   17.9214 O   0  0  0  0  0  0
  -49.8853    0.2743   15.7738 O   0  0  0  0  0  0
  -50.2505   -0.7205   13.2203 O   0  0  0  0  0  0
  -52.4218   -3.0152   18.7535 O   0  0  0  0  0  0
  -51.9307   -2.6814   16.4665 C   0  0  0  0  0  0
  -52.1130   -3.1801   15.1782 C   0  0  0  0  0  0
  -53.4063   -4.9964   15.9793 C   0  0  0  0  0  0
  -51.1825   -1.5203   16.6757 C   0  0  0  0  0  0
  -52.5396   -3.3978   17.5980 C   0  0  0  0  0  0
  -53.3075   -4.6139   17.2625 C   0  0  0  0  0  0
  -54.1686   -6.1981   15.5831 C   0  0  0  0  0  0
  -51.5476   -2.5179   14.0878 C   0  0  0  0  0  0
  -50.6170   -0.8605   15.5834 C   0  0  0  0  0  0
  -50.7998   -1.3586   14.2929 C   0  0  0  0  0  0
  -54.0508   -7.3787   16.3206 C   0  0  0  0  0  0
  -55.0098   -6.1603   14.4688 C   0  0  0  0  0  0
  -54.7700   -8.5141   15.9471 C   0  0  0  0  0  0
  -55.7298   -7.2953   14.0949 C   0  0  0  0  0  0
  -55.6095   -8.4717   14.8337 C   0  0  0  0  0  0
  -50.6893   -0.0802   17.8675 H   0  0  0  0  0  0
  -49.2420    0.1095   16.4862 H   0  0  0  0  0  0
  -49.9200   -1.3946   12.6003 H   0  0  0  0  0  0
  1  7  1  0  0  0
  1  8  1  0  0  0
  2  9  1  0  0  0
  2 21  1  0  0  0
  3 14  1  0  0  0
  3 22  1  0  0  0
  4 15  1  0  0  0
  4 23  1  0  0  0
  5 10  2  0  0  0
  6  7  2  0  0  0
  6  9  1  0  0  0
  6 10  1  0  0  0
  7 13  1  0  0  0
  8 11  2  0  0  0
  8 12  1  0  0  0
  9 14  2  0  0  0
 10 11  1  0  0  0
 12 16  2  0  0  0
 12 17  1  0  0  0
 13 15  2  0  0  0
 14 15  1  0  0  0
 16 18  1  0  0  0
 17 19  2  0  0  0
 18 20  2  0  0  0
 19 20  1  0  0  0
M  END
>  <CHROM.0>
178.84969000,-62.44501514,61.75401907

>  <CHROM.1>
-162.57659745,48.57127717,-39.32229200,137.53975776,-52.56827030,-3.76564197
15.76195472,-3.04380722,0.98703224,1.51448867

>  <Name>
Baicalein.pdb

>  <RI>
-1.21377e+09

>  <Rbt.Current_Directory>
/root/miniconda3/envs/rdock/share/rxdock-2013.1.1_148c5bd1-0/data/ligands/prepped_ligands/Baicalein

>  <Rbt.Executable>
rbdock/0.1.0

>  <Rbt.Library>
librxdock.so/0.1.0

>  <Rbt.Parameter_File>
/root/miniconda3/envs/rdock/share/rxdock-2013.1.1_148c5bd1-0/data/scripts/dock.prm

>  <Rbt.Receptor>
def.prm

>  <SCORE>
-16.11

>  <SCORE.INTER>
-18.8808

>  <SCORE.INTER.CONST>
1

>  <SCORE.INTER.POLAR>
-1.34398

>  <SCORE.INTER.REPUL>
0.00125605

>  <SCORE.INTER.ROT>
1

>  <SCORE.INTER.VDW>
-20.7175

>  <SCORE.INTER.norm>
-0.94404

>  <SCORE.INTRA>
3.80412

>  <SCORE.INTRA.DIHEDRAL>
6.04418

>  <SCORE.INTRA.DIHEDRAL.0>
1.23589

>  <SCORE.INTRA.POLAR>
0.398182

>  <SCORE.INTRA.POLAR.0>
-0.398182

>  <SCORE.INTRA.REPUL>
0

>  <SCORE.INTRA.REPUL.0>
0

>  <SCORE.INTRA.VDW>
-0.571792

>  <SCORE.INTRA.VDW.0>
0.600462

>  <SCORE.INTRA.norm>
0.190206

>  <SCORE.RESTR>
0

>  <SCORE.RESTR.CAVITY>
0

>  <SCORE.RESTR.norm>
0

>  <SCORE.SYSTEM>
-1.03335

>  <SCORE.SYSTEM.CONST>
0

>  <SCORE.SYSTEM.DIHEDRAL>
0.0399318

>  <SCORE.SYSTEM.POLAR>
-0.00504637

>  <SCORE.SYSTEM.VDW>
-1.03616

>  <SCORE.SYSTEM.norm>
-0.0516674

>  <SCORE.heavy>
20

>  <SCORE.norm>
-0.805501

$$$$
Baicalein.pdb
  RxDock  02242110253D
librxdock.so/0.1.0
 23 25  0  0  0  0  0  0  0  0999 V2000
  -48.0076   -0.7600   14.3233 O   0  0  0  0  0  0
  -49.6671   -5.0474   15.8417 O   0  0  0  0  0  0
  -47.5046   -5.2547   17.4935 O   0  0  0  0  0  0
  -45.6059   -3.2465   17.5677 O   0  0  0  0  0  0
  -50.9157   -3.6008   14.0638 O   0  0  0  0  0  0
  -48.8844   -2.9044   15.0497 C   0  0  0  0  0  0
  -47.9258   -1.8939   15.0897 C   0  0  0  0  0  0
  -49.0877   -0.6191   13.4655 C   0  0  0  0  0  0
  -48.7501   -4.0383   15.8547 C   0  0  0  0  0  0
  -50.0369   -2.7547   14.1476 C   0  0  0  0  0  0
  -50.0774   -1.5179   13.3415 C   0  0  0  0  0  0
  -49.0796    0.6395   12.6923 C   0  0  0  0  0  0
  -46.8244   -2.0110   15.9384 C   0  0  0  0  0  0
  -47.6469   -4.1535   16.7020 C   0  0  0  0  0  0
  -46.6870   -3.1417   16.7432 C   0  0  0  0  0  0
  -50.1715    1.5087   12.7548 C   0  0  0  0  0  0
  -47.9811    0.9662   11.8939 C   0  0  0  0  0  0
  -50.1649    2.6974   12.0249 C   0  0  0  0  0  0
  -47.9735    2.1551   11.1639 C   0  0  0  0  0  0
  -49.0653    3.0200   11.2292 C   0  0  0  0  0  0
  -50.3352   -4.8960   15.1550 H   0  0  0  0  0  0
  -46.6824   -5.1602   18.0069 H   0  0  0  0  0  0
  -45.0069   -2.5017   17.3820 H   0  0  0  0  0  0
  1  7  1  0  0  0
  1  8  1  0  0  0
  2  9  1  0  0  0
  2 21  1  0  0  0
  3 14  1  0  0  0
  3 22  1  0  0  0
  4 15  1  0  0  0
  4 23  1  0  0  0
  5 10  2  0  0  0
  6  7  2  0  0  0
  6  9  1  0  0  0
  6 10  1  0  0  0
  7 13  1  0  0  0
  8 11  2  0  0  0
  8 12  1  0  0  0
  9 14  2  0  0  0
 10 11  1  0  0  0
 12 16  2  0  0  0
 12 17  1  0  0  0
 13 15  2  0  0  0
 14 15  1  0  0  0
 16 18  1  0  0  0
 17 19  2  0  0  0
 18 20  2  0  0  0
 19 20  1  0  0  0
M  END
>  <CHROM.0>
-49.24240617,-177.64415047,-55.80054167

>  <CHROM.1>
5.60746671,179.78459724,-6.31422561,-123.86988331,-48.57697039,-1.61720694
14.46104879,-1.77966459,0.46994313,2.56996647

>  <Name>
Baicalein.pdb

>  <RI>
-1.21377e+09

>  <Rbt.Current_Directory>
/root/miniconda3/envs/rdock/share/rxdock-2013.1.1_148c5bd1-0/data/ligands/prepped_ligands/Baicalein

>  <Rbt.Executable>
rbdock/0.1.0

>  <Rbt.Library>
librxdock.so/0.1.0

>  <Rbt.Parameter_File>
/root/miniconda3/envs/rdock/share/rxdock-2013.1.1_148c5bd1-0/data/scripts/dock.prm

>  <Rbt.Receptor>
def.prm

>  <SCORE>
-16.1481

>  <SCORE.INTER>
-16.8999

>  <SCORE.INTER.CONST>
1

>  <SCORE.INTER.POLAR>
-0.453814

>  <SCORE.INTER.REPUL>
0.0221174

>  <SCORE.INTER.ROT>
1

>  <SCORE.INTER.VDW>
-21.8675

>  <SCORE.INTER.norm>
-0.844994

>  <SCORE.INTRA>
1.61101

>  <SCORE.INTRA.DIHEDRAL>
2.14357

>  <SCORE.INTRA.DIHEDRAL.0>
1.23589

>  <SCORE.INTRA.POLAR>
0.211626

>  <SCORE.INTRA.POLAR.0>
-0.398182

>  <SCORE.INTRA.REPUL>
0

>  <SCORE.INTRA.REPUL.0>
0

>  <SCORE.INTRA.VDW>
-0.180307

>  <SCORE.INTRA.VDW.0>
0.600462

>  <SCORE.INTRA.norm>
0.0805504

>  <SCORE.RESTR>
0

>  <SCORE.RESTR.CAVITY>
0

>  <SCORE.RESTR.norm>
0

>  <SCORE.SYSTEM>
-0.859184

>  <SCORE.SYSTEM.CONST>
0

>  <SCORE.SYSTEM.DIHEDRAL>
0.338014

>  <SCORE.SYSTEM.POLAR>
-0.0100435

>  <SCORE.SYSTEM.VDW>
-0.994043

>  <SCORE.SYSTEM.norm>
-0.0429592

>  <SCORE.heavy>
20

>  <SCORE.norm>
-0.807403

$$$$
Baicalein.pdb
  RxDock  02242110253D
librxdock.so/0.1.0
 23 25  0  0  0  0  0  0  0  0999 V2000
  -52.9224   -4.3863   15.0503 O   0  0  0  0  0  0
  -53.5354   -8.8084   16.9240 O   0  0  0  0  0  0
  -55.6757   -9.1692   15.2698 O   0  0  0  0  0  0
  -56.4436   -7.1691   13.5225 O   0  0  0  0  0  0
  -51.6271   -7.2025   17.6934 O   0  0  0  0  0  0
  -53.1849   -6.5950   16.0240 C   0  0  0  0  0  0
  -53.5744   -5.5889   15.1420 C   0  0  0  0  0  0
  -51.8337   -4.1604   15.8785 C   0  0  0  0  0  0
  -53.8865   -7.8020   16.0736 C   0  0  0  0  0  0
  -52.0246   -6.3629   16.8982 C   0  0  0  0  0  0
  -51.3590   -5.0515   16.7636 C   0  0  0  0  0  0
  -51.2036   -2.8372   15.6939 C   0  0  0  0  0  0
  -54.6704   -5.7851   14.3009 C   0  0  0  0  0  0
  -54.9831   -7.9953   15.2319 C   0  0  0  0  0  0
  -55.3732   -6.9888   14.3479 C   0  0  0  0  0  0
  -51.0804   -2.2909   14.4141 C   0  0  0  0  0  0
  -50.7268   -2.1263   16.7977 C   0  0  0  0  0  0
  -50.4854   -1.0415   14.2388 C   0  0  0  0  0  0
  -50.1320   -0.8765   16.6232 C   0  0  0  0  0  0
  -50.0111   -0.3346   15.3441 C   0  0  0  0  0  0
  -52.6791   -8.6234   17.3406 H   0  0  0  0  0  0
  -55.1541   -9.8179   15.7754 H   0  0  0  0  0  0
  -56.7548   -8.0863   13.6219 H   0  0  0  0  0  0
  1  7  1  0  0  0
  1  8  1  0  0  0
  2  9  1  0  0  0
  2 21  1  0  0  0
  3 14  1  0  0  0
  3 22  1  0  0  0
  4 15  1  0  0  0
  4 23  1  0  0  0
  5 10  2  0  0  0
  6  7  2  0  0  0
  6  9  1  0  0  0
  6 10  1  0  0  0
  7 13  1  0  0  0
  8 11  2  0  0  0
  8 12  1  0  0  0
  9 14  2  0  0  0
 10 11  1  0  0  0
 12 16  2  0  0  0
 12 17  1  0  0  0
 13 15  2  0  0  0
 14 15  1  0  0  0
 16 18  1  0  0  0
 17 19  2  0  0  0
 18 20  2  0  0  0
 19 20  1  0  0  0
M  END
>  <CHROM.0>
-64.15452014,-60.04722446,57.99672037

>  <CHROM.1>
-9.90666944,-12.95262689,174.35183351,-38.48938181,-52.81683600,-5.26530004
15.61421756,0.75188835,-0.69715936,-0.55577028

>  <Name>
Baicalein.pdb

>  <RI>
-1.21377e+09

>  <Rbt.Current_Directory>
/root/miniconda3/envs/rdock/share/rxdock-2013.1.1_148c5bd1-0/data/ligands/prepped_ligands/Baicalein

>  <Rbt.Executable>
rbdock/0.1.0

>  <Rbt.Library>
librxdock.so/0.1.0

>  <Rbt.Parameter_File>
/root/miniconda3/envs/rdock/share/rxdock-2013.1.1_148c5bd1-0/data/scripts/dock.prm

>  <Rbt.Receptor>
def.prm

>  <SCORE>
-13.5304

>  <SCORE.INTER>
-12.9935

>  <SCORE.INTER.CONST>
1

>  <SCORE.INTER.POLAR>
-0.429269

>  <SCORE.INTER.REPUL>
0.0133237

>  <SCORE.INTER.ROT>
1

>  <SCORE.INTER.VDW>
-18.0006

>  <SCORE.INTER.norm>
-0.649674

>  <SCORE.INTRA>
0.478594

>  <SCORE.INTRA.DIHEDRAL>
1.09059

>  <SCORE.INTRA.DIHEDRAL.0>
1.23589

>  <SCORE.INTRA.POLAR>
0.0618115

>  <SCORE.INTRA.POLAR.0>
-0.398182

>  <SCORE.INTRA.REPUL>
0

>  <SCORE.INTRA.REPUL.0>
0

>  <SCORE.INTRA.VDW>
-0.276862

>  <SCORE.INTRA.VDW.0>
0.600462

>  <SCORE.INTRA.norm>
0.0239297

>  <SCORE.RESTR>
0.0100145

>  <SCORE.RESTR.CAVITY>
0.0100145

>  <SCORE.RESTR.norm>
0.000500727

>  <SCORE.SYSTEM>
-1.02558

>  <SCORE.SYSTEM.CONST>
0

>  <SCORE.SYSTEM.DIHEDRAL>
0.0571995

>  <SCORE.SYSTEM.VDW>
-1.05418

>  <SCORE.SYSTEM.norm>
-0.0512791

>  <SCORE.heavy>
20

>  <SCORE.norm>
-0.676522

$$$$
Baicalein.pdb
  RxDock  02242110253D
librxdock.so/0.1.0
 23 25  0  0  0  0  0  0  0  0999 V2000
  -47.8235    0.6279   13.5164 O   0  0  0  0  0  0
  -48.3219   -3.6924   15.6445 O   0  0  0  0  0  0
  -45.7053   -3.5724   16.4105 O   0  0  0  0  0  0
  -44.1529   -1.3847   15.7420 O   0  0  0  0  0  0
  -50.2806   -2.4994   14.3983 O   0  0  0  0  0  0
  -48.1280   -1.5399   14.5668 C   0  0  0  0  0  0
  -47.3429   -0.4385   14.2317 C   0  0  0  0  0  0
  -49.1465    0.6029   13.1022 C   0  0  0  0  0  0
  -47.5849   -2.5984   15.2991 C   0  0  0  0  0  0
  -49.5347   -1.5662   14.1371 C   0  0  0  0  0  0
  -50.0032   -0.3963   13.3673 C   0  0  0  0  0  0
  -49.5608    1.8016   12.3449 C   0  0  0  0  0  0
  -46.0062   -0.3884   14.6292 C   0  0  0  0  0  0
  -46.2472   -2.5463   15.6946 C   0  0  0  0  0  0
  -45.4607   -1.4434   15.3601 C   0  0  0  0  0  0
  -50.9143    2.1301   12.2364 C   0  0  0  0  0  0
  -48.6018    2.6117   11.7326 C   0  0  0  0  0  0
  -51.3066    3.2617   11.5212 C   0  0  0  0  0  0
  -48.9933    3.7439   11.0175 C   0  0  0  0  0  0
  -50.3453    4.0683   10.9117 C   0  0  0  0  0  0
  -47.7869   -4.3199   16.1553 H   0  0  0  0  0  0
  -44.7586   -3.3875   16.5446 H   0  0  0  0  0  0
  -43.7253   -0.6574   15.2561 H   0  0  0  0  0  0
  1  7  1  0  0  0
  1  8  1  0  0  0
  2  9  1  0  0  0
  2 21  1  0  0  0
  3 14  1  0  0  0
  3 22  1  0  0  0
  4 15  1  0  0  0
  4 23  1  0  0  0
  5 10  2  0  0  0
  6  7  2  0  0  0
  6  9  1  0  0  0
  6 10  1  0  0  0
  7 13  1  0  0  0
  8 11  2  0  0  0
  8 12  1  0  0  0
  9 14  2  0  0  0
 10 11  1  0  0  0
 12 16  2  0  0  0
 12 17  1  0  0  0
 13 15  2  0  0  0
 14 15  1  0  0  0
 16 18  1  0  0  0
 17 19  2  0  0  0
 18 20  2  0  0  0
 19 20  1  0  0  0
M  END
>  <CHROM.0>
177.20282556,-179.46767668,-65.80444722

>  <CHROM.1>
-179.50522527,176.45274041,-12.53981583,-159.35010482,-48.19695678,-0.27346448
13.87576402,-2.08776173,0.23457514,2.63598665

>  <Name>
Baicalein.pdb

>  <RI>
-1.21377e+09

>  <Rbt.Current_Directory>
/root/miniconda3/envs/rdock/share/rxdock-2013.1.1_148c5bd1-0/data/ligands/prepped_ligands/Baicalein

>  <Rbt.Executable>
rbdock/0.1.0

>  <Rbt.Library>
librxdock.so/0.1.0

>  <Rbt.Parameter_File>
/root/miniconda3/envs/rdock/share/rxdock-2013.1.1_148c5bd1-0/data/scripts/dock.prm

>  <Rbt.Receptor>
def.prm

>  <SCORE>
-16.2117

>  <SCORE.INTER>
-15.5436

>  <SCORE.INTER.CONST>
1

>  <SCORE.INTER.POLAR>
-0.507652

>  <SCORE.INTER.REPUL>
0.0176776

>  <SCORE.INTER.ROT>
1

>  <SCORE.INTER.VDW>
-20.306

>  <SCORE.INTER.norm>
-0.777181

>  <SCORE.INTRA>
0.356804

>  <SCORE.INTRA.DIHEDRAL>
-0.416551

>  <SCORE.INTRA.DIHEDRAL.0>
1.23589

>  <SCORE.INTRA.POLAR>
0.0474473

>  <SCORE.INTRA.POLAR.0>
-0.398182

>  <SCORE.INTRA.REPUL>
0

>  <SCORE.INTRA.REPUL.0>
0

>  <SCORE.INTRA.VDW>
0.403759

>  <SCORE.INTRA.VDW.0>
0.600462

>  <SCORE.INTRA.norm>
0.0178402

>  <SCORE.RESTR>
0

>  <SCORE.RESTR.CAVITY>
0

>  <SCORE.RESTR.norm>
0

>  <SCORE.SYSTEM>
-1.02488

>  <SCORE.SYSTEM.CONST>
0

>  <SCORE.SYSTEM.DIHEDRAL>
0.110079

>  <SCORE.SYSTEM.VDW>
-1.07992

>  <SCORE.SYSTEM.norm>
-0.0512442

>  <SCORE.heavy>
20

>  <SCORE.norm>
-0.810585

$$$$
Baicalein.pdb
  RxDock  02242110253D
librxdock.so/0.1.0
 23 25  0  0  0  0  0  0  0  0999 V2000
  -52.0492   -3.8680   15.8673 O   0  0  0  0  0  0
  -53.0935   -8.4739   16.9338 O   0  0  0  0  0  0
  -55.7303   -7.9406   16.4748 O   0  0  0  0  0  0
  -56.5321   -5.4039   15.7228 O   0  0  0  0  0  0
  -50.6597   -7.5320   16.9804 O   0  0  0  0  0  0
  -52.5174   -6.1875   16.4115 C   0  0  0  0  0  0
  -52.9249   -4.9101   16.0320 C   0  0  0  0  0  0
  -50.7010   -4.0956   16.0974 C   0  0  0  0  0  0
  -53.4546   -7.2124   16.5631 C   0  0  0  0  0  0
  -51.0867   -6.4356   16.6477 C   0  0  0  0  0  0
  -50.1852   -5.2810   16.4602 C   0  0  0  0  0  0
  -49.8475   -2.9086   15.8863 C   0  0  0  0  0  0
  -54.2759   -4.6495   15.8000 C   0  0  0  0  0  0
  -54.8056   -6.9488   16.3314 C   0  0  0  0  0  0
  -55.2143   -5.6702   15.9506 C   0  0  0  0  0  0
  -50.4256   -1.6728   15.5862 C   0  0  0  0  0  0
  -48.4584   -3.0161   15.9845 C   0  0  0  0  0  0
  -49.6205   -0.5514   15.3865 C   0  0  0  0  0  0
  -47.6524   -1.8949   15.7853 C   0  0  0  0  0  0
  -48.2334   -0.6632   15.4861 C   0  0  0  0  0  0
  -52.3449   -8.7872   16.4024 H   0  0  0  0  0  0
  -56.6142   -7.5614   16.3221 H   0  0  0  0  0  0
  -56.6150   -4.4678   15.4684 H   0  0  0  0  0  0
  1  7  1  0  0  0
  1  8  1  0  0  0
  2  9  1  0  0  0
  2 21  1  0  0  0
  3 14  1  0  0  0
  3 22  1  0  0  0
  4 15  1  0  0  0
  4 23  1  0  0  0
  5 10  2  0  0  0
  6  7  2  0  0  0
  6  9  1  0  0  0
  6 10  1  0  0  0
  7 13  1  0  0  0
  8 11  2  0  0  0
  8 12  1  0  0  0
  9 14  2  0  0  0
 10 11  1  0  0  0
 12 16  2  0  0  0
 12 17  1  0  0  0
 13 15  2  0  0  0
 14 15  1  0  0  0
 16 18  1  0  0  0
 17 19  2  0  0  0
 18 20  2  0  0  0
 19 20  1  0  0  0
M  END
>  <CHROM.0>
-55.62438574,174.90379172,-45.98666593

>  <CHROM.1>
-48.22037522,176.89364888,0.14441983,4.71761687,-51.98571682,-4.87039129
16.13041092,0.72305602,-0.10830186,-0.24476135

>  <Name>
Baicalein.pdb

>  <RI>
-1.21377e+09

>  <Rbt.Current_Directory>
/root/miniconda3/envs/rdock/share/rxdock-2013.1.1_148c5bd1-0/data/ligands/prepped_ligands/Baicalein

>  <Rbt.Executable>
rbdock/0.1.0

>  <Rbt.Library>
librxdock.so/0.1.0

>  <Rbt.Parameter_File>
/root/miniconda3/envs/rdock/share/rxdock-2013.1.1_148c5bd1-0/data/scripts/dock.prm

>  <Rbt.Receptor>
def.prm

>  <SCORE>
-10.5982

>  <SCORE.INTER>
-11.7378

>  <SCORE.INTER.CONST>
1

>  <SCORE.INTER.POLAR>
-0.943069

>  <SCORE.INTER.REPUL>
0.0131036

>  <SCORE.INTER.ROT>
1

>  <SCORE.INTER.VDW>
-14.9969

>  <SCORE.INTER.norm>
-0.586889

>  <SCORE.INTRA>
1.82727

>  <SCORE.INTRA.DIHEDRAL>
1.47324

>  <SCORE.INTRA.DIHEDRAL.0>
1.23589

>  <SCORE.INTRA.POLAR>
0.213194

>  <SCORE.INTRA.POLAR.0>
-0.398182

>  <SCORE.INTRA.REPUL>
0

>  <SCORE.INTRA.REPUL.0>
0

>  <SCORE.INTRA.VDW>
0.365792

>  <SCORE.INTRA.VDW.0>
0.600462

>  <SCORE.INTRA.norm>
0.0913636

>  <SCORE.RESTR>
0

>  <SCORE.RESTR.CAVITY>
0

>  <SCORE.RESTR.norm>
0

>  <SCORE.SYSTEM>
-0.687666

>  <SCORE.SYSTEM.CONST>
0

>  <SCORE.SYSTEM.DIHEDRAL>
0.624153

>  <SCORE.SYSTEM.POLAR>
-0.0198605

>  <SCORE.SYSTEM.VDW>
-0.932217

>  <SCORE.SYSTEM.norm>
-0.0343833

>  <SCORE.heavy>
20

>  <SCORE.norm>
-0.529908

$$$$
Baicalein.pdb
  RxDock  02242110253D
librxdock.so/0.1.0
 23 25  0  0  0  0  0  0  0  0999 V2000
  -52.6126   -4.5240   15.0666 O   0  0  0  0  0  0
  -52.6189   -8.4639   17.8808 O   0  0  0  0  0  0
  -54.7569   -9.4149   16.4763 O   0  0  0  0  0  0
  -55.8225   -7.9468   14.3901 O   0  0  0  0  0  0
  -50.8932   -6.5271   18.1693 O   0  0  0  0  0  0
  -52.5711   -6.4787   16.5064 C   0  0  0  0  0  0
  -53.1105   -5.7413   15.4542 C   0  0  0  0  0  0
  -51.5306   -4.0022   15.7590 C   0  0  0  0  0  0
  -53.1191   -7.7150   16.8569 C   0  0  0  0  0  0
  -51.4173   -5.9328   17.2379 C   0  0  0  0  0  0
  -50.9205   -4.6181   16.7843 C   0  0  0  0  0  0
  -51.0724   -2.6910   15.2563 C   0  0  0  0  0  0
  -54.2036   -6.2380   14.7432 C   0  0  0  0  0  0
  -54.2133   -8.2091   16.1449 C   0  0  0  0  0  0
  -54.7534   -7.4718   15.0906 C   0  0  0  0  0  0
  -50.3158   -1.8503   16.0763 C   0  0  0  0  0  0
  -51.3941   -2.2847   13.9593 C   0  0  0  0  0  0
  -49.8828   -0.6118   15.6026 C   0  0  0  0  0  0
  -50.9610   -1.0464   13.4845 C   0  0  0  0  0  0
  -50.2060   -0.2103   14.3062 C   0  0  0  0  0  0
  -51.8283   -8.0467   18.2575 H   0  0  0  0  0  0
  -55.4556   -9.6250   15.8312 H   0  0  0  0  0  0
  -56.0778   -7.2771   13.7310 H   0  0  0  0  0  0
  1  7  1  0  0  0
  1  8  1  0  0  0
  2  9  1  0  0  0
  2 21  1  0  0  0
  3 14  1  0  0  0
  3 22  1  0  0  0
  4 15  1  0  0  0
  4 23  1  0  0  0
  5 10  2  0  0  0
  6  7  2  0  0  0
  6  9  1  0  0  0
  6 10  1  0  0  0
  7 13  1  0  0  0
  8 11  2  0  0  0
  8 12  1  0  0  0
  9 14  2  0  0  0
 10 11  1  0  0  0
 12 16  2  0  0  0
 12 17  1  0  0  0
 13 15  2  0  0  0
 14 15  1  0  0  0
 16 18  1  0  0  0
 17 19  2  0  0  0
 18 20  2  0  0  0
 19 20  1  0  0  0
M  END
>  <CHROM.0>
-63.18855477,-177.54412154,177.12624908

>  <CHROM.1>
-3.85128291,-175.43994043,-2.69170274,159.11401258,-52.38696609,-5.23267627
15.79102429,0.92029635,-0.70484195,-0.65219973

>  <Name>
Baicalein.pdb

>  <RI>
-1.21377e+09

>  <Rbt.Current_Directory>
/root/miniconda3/envs/rdock/share/rxdock-2013.1.1_148c5bd1-0/data/ligands/prepped_ligands/Baicalein

>  <Rbt.Executable>
rbdock/0.1.0

>  <Rbt.Library>
librxdock.so/0.1.0

>  <Rbt.Parameter_File>
/root/miniconda3/envs/rdock/share/rxdock-2013.1.1_148c5bd1-0/data/scripts/dock.prm

>  <Rbt.Receptor>
def.prm

>  <SCORE>
-14.9753

>  <SCORE.INTER>
-14.9364

>  <SCORE.INTER.CONST>
1

>  <SCORE.INTER.POLAR>
-0.938083

>  <SCORE.INTER.REPUL>
0

>  <SCORE.INTER.ROT>
1

>  <SCORE.INTER.VDW>
-18.1469

>  <SCORE.INTER.norm>
-0.746821

>  <SCORE.INTRA>
1.02902

>  <SCORE.INTRA.DIHEDRAL>
-0.538719

>  <SCORE.INTRA.DIHEDRAL.0>
1.23589

>  <SCORE.INTRA.POLAR>
0.216198

>  <SCORE.INTRA.POLAR.0>
-0.398182

>  <SCORE.INTRA.REPUL>
0

>  <SCORE.INTRA.REPUL.0>
0

>  <SCORE.INTRA.VDW>
0.56331

>  <SCORE.INTRA.VDW.0>
0.600462

>  <SCORE.INTRA.norm>
0.0514511

>  <SCORE.RESTR>
0

>  <SCORE.RESTR.CAVITY>
0

>  <SCORE.RESTR.norm>
0

>  <SCORE.SYSTEM>
-1.06791

>  <SCORE.SYSTEM.CONST>
0

>  <SCORE.SYSTEM.DIHEDRAL>
0.0799679

>  <SCORE.SYSTEM.VDW>
-1.1079

>  <SCORE.SYSTEM.norm>
-0.0533956

>  <SCORE.heavy>
20

>  <SCORE.norm>
-0.748765

$$$$
Baicalein.pdb
  RxDock  02242110253D
librxdock.so/0.1.0
 23 25  0  0  0  0  0  0  0  0999 V2000
  -49.4776   -4.0273   15.6634 O   0  0  0  0  0  0
  -50.0757   -0.0390   12.9842 O   0  0  0  0  0  0
  -47.3981    0.4490   13.1845 O   0  0  0  0  0  0
  -45.7672   -1.2715   14.6070 O   0  0  0  0  0  0
  -52.0516   -1.6227   13.6169 O   0  0  0  0  0  0
  -49.8333   -2.0386   14.3165 C   0  0  0  0  0  0
  -49.0086   -2.9039   15.0325 C   0  0  0  0  0  0
  -50.8335   -4.3075   15.5915 C   0  0  0  0  0  0
  -49.2998   -0.9084   13.6923 C   0  0  0  0  0  0
  -51.2713   -2.3372   14.2301 C   0  0  0  0  0  0
  -51.7271   -3.5560   14.9286 C   0  0  0  0  0  0
  -51.2296   -5.5415   16.3004 C   0  0  0  0  0  0
  -47.6409   -2.6440   15.1278 C   0  0  0  0  0  0
  -47.9316   -0.6501   13.7900 C   0  0  0  0  0  0
  -47.1048   -1.5166   14.5060 C   0  0  0  0  0  0
  -52.5751   -5.9109   16.3680 C   0  0  0  0  0  0
  -50.2611   -6.3442   16.9075 C   0  0  0  0  0  0
  -52.9501   -7.0759   17.0374 C   0  0  0  0  0  0
  -50.6353   -7.5097   17.5767 C   0  0  0  0  0  0
  -51.9794   -7.8750   17.6419 C   0  0  0  0  0  0
  -49.5342    0.6636   12.5915 H   0  0  0  0  0  0
  -46.5432    0.1987   12.7908 H   0  0  0  0  0  0
  -45.3486   -2.0357   15.0413 H   0  0  0  0  0  0
  1  7  1  0  0  0
  1  8  1  0  0  0
  2  9  1  0  0  0
  2 21  1  0  0  0
  3 14  1  0  0  0
  3 22  1  0  0  0
  4 15  1  0  0  0
  4 23  1  0  0  0
  5 10  2  0  0  0
  6  7  2  0  0  0
  6  9  1  0  0  0
  6 10  1  0  0  0
  7 13  1  0  0  0
  8 11  2  0  0  0
  8 12  1  0  0  0
  9 14  2  0  0  0
 10 11  1  0  0  0
 12 16  2  0  0  0
 12 17  1  0  0  0
 13 15  2  0  0  0
 14 15  1  0  0  0
 16 18  1  0  0  0
 17 19  2  0  0  0
 18 20  2  0  0  0
 19 20  1  0  0  0
M  END
>  <CHROM.0>
61.90633375,-67.43459411,178.95175889

>  <CHROM.1>
-177.64420920,-139.71871439,7.13513826,176.78698515,-49.87766680,-3.25895534
15.08735862,-2.07386155,-0.15195284,-0.56780055

>  <Name>
Baicalein.pdb

>  <RI>
-1.21377e+09

>  <Rbt.Current_Directory>
/root/miniconda3/envs/rdock/share/rxdock-2013.1.1_148c5bd1-0/data/ligands/prepped_ligands/Baicalein

>  <Rbt.Executable>
rbdock/0.1.0

>  <Rbt.Library>
librxdock.so/0.1.0

>  <Rbt.Parameter_File>
/root/miniconda3/envs/rdock/share/rxdock-2013.1.1_148c5bd1-0/data/scripts/dock.prm

>  <Rbt.Receptor>
def.prm

>  <SCORE>
-17.9624

>  <SCORE.INTER>
-18.7555

>  <SCORE.INTER.CONST>
1

>  <SCORE.INTER.POLAR>
-2.47111

>  <SCORE.INTER.REPUL>
0.0243453

>  <SCORE.INTER.ROT>
1

>  <SCORE.INTER.VDW>
-16.8754

>  <SCORE.INTER.norm>
-0.937774

>  <SCORE.INTRA>
1.79984

>  <SCORE.INTRA.DIHEDRAL>
0.868824

>  <SCORE.INTRA.DIHEDRAL.0>
1.23589

>  <SCORE.INTRA.POLAR>
0.267193

>  <SCORE.INTRA.POLAR.0>
-0.398182

>  <SCORE.INTRA.REPUL>
0

>  <SCORE.INTRA.REPUL.0>
0

>  <SCORE.INTRA.VDW>
0.456968

>  <SCORE.INTRA.VDW.0>
0.600462

>  <SCORE.INTRA.norm>
0.0899918

>  <SCORE.RESTR>
0

>  <SCORE.RESTR.CAVITY>
0

>  <SCORE.RESTR.norm>
0

>  <SCORE.SYSTEM>
-1.00675

>  <SCORE.SYSTEM.CONST>
0

>  <SCORE.SYSTEM.DIHEDRAL>
0.280653

>  <SCORE.SYSTEM.VDW>
-1.14708

>  <SCORE.SYSTEM.norm>
-0.0503374

>  <SCORE.heavy>
20

>  <SCORE.norm>
-0.89812

$$$$
