Baicalein.pdb
  RxDock  02242101513D
librxdock.so/0.1.0
 23 25  0  0  0  0  0  0  0  0999 V2000
  -50.4597   -0.8021   13.3506 O   0  0  0  0  0  0
  -48.7518   -4.6401   15.7579 O   0  0  0  0  0  0
  -51.2996   -5.5969   15.9602 O   0  0  0  0  0  0
  -53.4133   -4.1818   14.8772 O   0  0  0  0  0  0
  -47.2096   -2.7291   14.8734 O   0  0  0  0  0  0
  -49.5505   -2.7055   14.5530 C   0  0  0  0  0  0
  -50.6180   -1.9949   14.0080 C   0  0  0  0  0  0
  -49.1816   -0.2780   13.2320 C   0  0  0  0  0  0
  -49.7711   -3.9177   15.2116 C   0  0  0  0  0  0
  -48.1916   -2.1575   14.4213 C   0  0  0  0  0  0
  -48.0743   -0.8696   13.7082 C   0  0  0  0  0  0
  -49.1246    1.0054   12.5029 C   0  0  0  0  0  0
  -51.9164   -2.4943   14.1175 C   0  0  0  0  0  0
  -51.0709   -4.4145   15.3208 C   0  0  0  0  0  0
  -52.1403   -3.7039   14.7746 C   0  0  0  0  0  0
  -48.0612    1.2746   11.6379 C   0  0  0  0  0  0
  -50.1328    1.9565   12.6756 C   0  0  0  0  0  0
  -48.0064    2.4864   10.9491 C   0  0  0  0  0  0
  -50.0790    3.1686   11.9867 C   0  0  0  0  0  0
  -49.0159    3.4333   11.1241 C   0  0  0  0  0  0
  -48.9116   -5.5914   15.6560 H   0  0  0  0  0  0
  -50.5342   -5.7913   16.5303 H   0  0  0  0  0  0
  -53.9618   -3.7360   14.2076 H   0  0  0  0  0  0
  1  7  1  0  0  0
  1  8  1  0  0  0
  2  9  1  0  0  0
  2 21  1  0  0  0
  3 14  1  0  0  0
  3 22  1  0  0  0
  4 15  1  0  0  0
  4 23  1  0  0  0
  5 10  2  0  0  0
  6  7  2  0  0  0
  6  9  1  0  0  0
  6 10  1  0  0  0
  7 13  1  0  0  0
  8 11  2  0  0  0
  8 12  1  0  0  0
  9 14  2  0  0  0
 10 11  1  0  0  0
 12 16  2  0  0  0
 12 17  1  0  0  0
 13 15  2  0  0  0
 14 15  1  0  0  0
 16 18  1  0  0  0
 17 19  2  0  0  0
 18 20  2  0  0  0
 19 20  1  0  0  0
M  END
>  <CHROM.0>
179.45873287,-61.42756512,-61.65039680

>  <CHROM.1>
-143.77489077,19.59331673,18.73965158,-142.10047276,-49.83712788,-1.49510582
13.82317891,1.31226475,-0.05200882,-0.50277118

>  <Name>
Baicalein.pdb

>  <RI>
-4.13154e+08

>  <Rbt.Current_Directory>
/root/miniconda3/envs/rdock/share/rxdock-2013.1.1_148c5bd1-0/data/ligands/prepped_ligands/Baicalein

>  <Rbt.Executable>
rbdock/0.1.0

>  <Rbt.Library>
librxdock.so/0.1.0

>  <Rbt.Parameter_File>
/root/miniconda3/envs/rdock/share/rxdock-2013.1.1_148c5bd1-0/data/scripts/dock.prm

>  <Rbt.Receptor>
def.prm

>  <SCORE>
-17.2097

>  <SCORE.INTER>
-19.4

>  <SCORE.INTER.CONST>
1

>  <SCORE.INTER.POLAR>
-1.20003

>  <SCORE.INTER.REPUL>
0.368193

>  <SCORE.INTER.ROT>
1

>  <SCORE.INTER.VDW>
-23.5608

>  <SCORE.INTER.norm>
-0.969998

>  <SCORE.INTRA>
3.25607

>  <SCORE.INTRA.DIHEDRAL>
3.24933

>  <SCORE.INTRA.DIHEDRAL.0>
1.23589

>  <SCORE.INTRA.POLAR>
0.398182

>  <SCORE.INTRA.POLAR.0>
-0.398182

>  <SCORE.INTRA.REPUL>
0

>  <SCORE.INTRA.REPUL.0>
0

>  <SCORE.INTRA.VDW>
0.277585

>  <SCORE.INTRA.VDW.0>
0.600462

>  <SCORE.INTRA.norm>
0.162804

>  <SCORE.RESTR>
0

>  <SCORE.RESTR.CAVITY>
0

>  <SCORE.RESTR.norm>
0

>  <SCORE.SYSTEM>
-1.06577

>  <SCORE.SYSTEM.CONST>
0

>  <SCORE.SYSTEM.DIHEDRAL>
0.0194365

>  <SCORE.SYSTEM.VDW>
-1.07549

>  <SCORE.SYSTEM.norm>
-0.0532887

>  <SCORE.heavy>
20

>  <SCORE.norm>
-0.860483

$$$$
Baicalein.pdb
  RxDock  02242101513D
librxdock.so/0.1.0
 23 25  0  0  0  0  0  0  0  0999 V2000
  -46.3599   -0.5134   14.2257 O   0  0  0  0  0  0
  -51.1131    0.0899   13.5294 O   0  0  0  0  0  0
  -50.5611    1.5020   11.2602 O   0  0  0  0  0  0
  -47.9430    1.9118   10.4721 O   0  0  0  0  0  0
  -50.1413   -1.2306   15.5602 O   0  0  0  0  0  0
  -48.7536   -0.2405   13.9242 C   0  0  0  0  0  0
  -47.4352   -0.0323   13.5241 C   0  0  0  0  0  0
  -46.5972   -1.2304   15.3884 C   0  0  0  0  0  0
  -49.8109    0.2725   13.1687 C   0  0  0  0  0  0
  -49.0101   -1.0086   15.1524 C   0  0  0  0  0  0
  -47.8194   -1.5021   15.8733 C   0  0  0  0  0  0
  -45.3710   -1.7054   16.0612 C   0  0  0  0  0  0
  -47.1653    0.6912   12.3618 C   0  0  0  0  0  0
  -49.5382    0.9968   12.0071 C   0  0  0  0  0  0
  -48.2183    1.2049   11.6053 C   0  0  0  0  0  0
  -44.1568   -1.7319   15.3708 C   0  0  0  0  0  0
  -45.4195   -2.1316   17.3905 C   0  0  0  0  0  0
  -42.9984   -2.1805   16.0052 C   0  0  0  0  0  0
  -44.2612   -2.5800   18.0259 C   0  0  0  0  0  0
  -43.0513   -2.6047   17.3332 C   0  0  0  0  0  0
  -51.7091    0.3556   12.8116 H   0  0  0  0  0  0
  -50.1941    1.8361   10.4223 H   0  0  0  0  0  0
  -47.1472    2.4491   10.6331 H   0  0  0  0  0  0
  1  7  1  0  0  0
  1  8  1  0  0  0
  2  9  1  0  0  0
  2 21  1  0  0  0
  3 14  1  0  0  0
  3 22  1  0  0  0
  4 15  1  0  0  0
  4 23  1  0  0  0
  5 10  2  0  0  0
  6  7  2  0  0  0
  6  9  1  0  0  0
  6 10  1  0  0  0
  7 13  1  0  0  0
  8 11  2  0  0  0
  8 12  1  0  0  0
  9 14  2  0  0  0
 10 11  1  0  0  0
 12 16  2  0  0  0
 12 17  1  0  0  0
 13 15  2  0  0  0
 14 15  1  0  0  0
 16 18  1  0  0  0
 17 19  2  0  0  0
 18 20  2  0  0  0
 19 20  1  0  0  0
M  END
>  <CHROM.0>
64.75632182,59.07140305,-67.21930558

>  <CHROM.1>
-168.84092024,-170.37707676,-37.49517715,-16.50166218,-47.39587835,-0.53597902
14.31635036,-0.81736094,0.05149517,-1.02978030

>  <Name>
Baicalein.pdb

>  <RI>
-4.13154e+08

>  <Rbt.Current_Directory>
/root/miniconda3/envs/rdock/share/rxdock-2013.1.1_148c5bd1-0/data/ligands/prepped_ligands/Baicalein

>  <Rbt.Executable>
rbdock/0.1.0

>  <Rbt.Library>
librxdock.so/0.1.0

>  <Rbt.Parameter_File>
/root/miniconda3/envs/rdock/share/rxdock-2013.1.1_148c5bd1-0/data/scripts/dock.prm

>  <Rbt.Receptor>
def.prm

>  <SCORE>
-12.7142

>  <SCORE.INTER>
-13.4728

>  <SCORE.INTER.CONST>
1

>  <SCORE.INTER.POLAR>
-2.73128

>  <SCORE.INTER.REPUL>
0

>  <SCORE.INTER.ROT>
1

>  <SCORE.INTER.VDW>
-10.5865

>  <SCORE.INTER.norm>
-0.673642

>  <SCORE.INTRA>
1.21472

>  <SCORE.INTRA.DIHEDRAL>
1.26579

>  <SCORE.INTRA.DIHEDRAL.0>
1.23589

>  <SCORE.INTRA.POLAR>
0.124604

>  <SCORE.INTRA.POLAR.0>
-0.398182

>  <SCORE.INTRA.REPUL>
0

>  <SCORE.INTRA.REPUL.0>
0

>  <SCORE.INTRA.VDW>
0.158169

>  <SCORE.INTRA.VDW.0>
0.600462

>  <SCORE.INTRA.norm>
0.0607358

>  <SCORE.RESTR>
0.405601

>  <SCORE.RESTR.CAVITY>
0.405601

>  <SCORE.RESTR.norm>
0.02028

>  <SCORE.SYSTEM>
-0.861716

>  <SCORE.SYSTEM.CONST>
0

>  <SCORE.SYSTEM.DIHEDRAL>
0.189318

>  <SCORE.SYSTEM.VDW>
-0.956375

>  <SCORE.SYSTEM.norm>
-0.0430858

>  <SCORE.heavy>
20

>  <SCORE.norm>
-0.635712

$$$$
Baicalein.pdb
  RxDock  02242101513D
librxdock.so/0.1.0
 23 25  0  0  0  0  0  0  0  0999 V2000
  -52.0135   -4.5075   14.6955 O   0  0  0  0  0  0
  -50.7236   -0.2809   16.6739 O   0  0  0  0  0  0
  -48.7737   -0.0351   14.7804 O   0  0  0  0  0  0
  -48.4344   -1.9966   12.8619 O   0  0  0  0  0  0
  -52.6805   -1.7355   17.6052 O   0  0  0  0  0  0
  -51.4078   -2.3944   15.7267 C   0  0  0  0  0  0
  -51.2343   -3.3811   14.7582 C   0  0  0  0  0  0
  -53.0114   -4.6738   15.6437 C   0  0  0  0  0  0
  -50.5842   -1.2660   15.7415 C   0  0  0  0  0  0
  -52.4714   -2.5625   16.7291 C   0  0  0  0  0  0
  -53.2806   -3.7932   16.6208 C   0  0  0  0  0  0
  -53.7928   -5.9167   15.4808 C   0  0  0  0  0  0
  -50.2339   -3.2443   13.7950 C   0  0  0  0  0  0
  -49.5836   -1.1321   14.7776 C   0  0  0  0  0  0
  -49.4098   -2.1193   13.8069 C   0  0  0  0  0  0
  -53.5646   -7.0051   16.3264 C   0  0  0  0  0  0
  -54.7626   -6.0105   14.4801 C   0  0  0  0  0  0
  -54.3018   -8.1794   16.1732 C   0  0  0  0  0  0
  -55.5006   -7.1844   14.3265 C   0  0  0  0  0  0
  -55.2699   -8.2685   15.1726 C   0  0  0  0  0  0
  -51.3408   -0.5525   17.3713 H   0  0  0  0  0  0
  -48.1502   -0.1113   14.0362 H   0  0  0  0  0  0
  -48.8381   -2.1345   11.9867 H   0  0  0  0  0  0
  1  7  1  0  0  0
  1  8  1  0  0  0
  2  9  1  0  0  0
  2 21  1  0  0  0
  3 14  1  0  0  0
  3 22  1  0  0  0
  4 15  1  0  0  0
  4 23  1  0  0  0
  5 10  2  0  0  0
  6  7  2  0  0  0
  6  9  1  0  0  0
  6 10  1  0  0  0
  7 13  1  0  0  0
  8 11  2  0  0  0
  8 12  1  0  0  0
  9 14  2  0  0  0
 10 11  1  0  0  0
 12 16  2  0  0  0
 12 17  1  0  0  0
 13 15  2  0  0  0
 14 15  1  0  0  0
 16 18  1  0  0  0
 17 19  2  0  0  0
 18 20  2  0  0  0
 19 20  1  0  0  0
M  END
>  <CHROM.0>
60.07860863,64.24378357,59.79062389

>  <CHROM.1>
9.60125619,-179.36027479,51.06433871,103.59504674,-51.95671238,-3.66356388
15.29943200,-2.57773823,0.72127892,0.71583109

>  <Name>
Baicalein.pdb

>  <RI>
-4.13154e+08

>  <Rbt.Current_Directory>
/root/miniconda3/envs/rdock/share/rxdock-2013.1.1_148c5bd1-0/data/ligands/prepped_ligands/Baicalein

>  <Rbt.Executable>
rbdock/0.1.0

>  <Rbt.Library>
librxdock.so/0.1.0

>  <Rbt.Parameter_File>
/root/miniconda3/envs/rdock/share/rxdock-2013.1.1_148c5bd1-0/data/scripts/dock.prm

>  <Rbt.Receptor>
def.prm

>  <SCORE>
-13.363

>  <SCORE.INTER>
-15.6289

>  <SCORE.INTER.CONST>
1

>  <SCORE.INTER.POLAR>
-1.34093

>  <SCORE.INTER.REPUL>
0.233182

>  <SCORE.INTER.ROT>
1

>  <SCORE.INTER.VDW>
-18.6356

>  <SCORE.INTER.norm>
-0.781444

>  <SCORE.INTRA>
3.24833

>  <SCORE.INTRA.DIHEDRAL>
6.35215

>  <SCORE.INTRA.DIHEDRAL.0>
1.23589

>  <SCORE.INTRA.POLAR>
0.281405

>  <SCORE.INTRA.POLAR.0>
-0.398182

>  <SCORE.INTRA.REPUL>
0

>  <SCORE.INTRA.REPUL.0>
0

>  <SCORE.INTRA.VDW>
-0.884516

>  <SCORE.INTRA.VDW.0>
0.600462

>  <SCORE.INTRA.norm>
0.162417

>  <SCORE.RESTR>
0.0179825

>  <SCORE.RESTR.CAVITY>
0.0179825

>  <SCORE.RESTR.norm>
0.000899126

>  <SCORE.SYSTEM>
-1.00044

>  <SCORE.SYSTEM.CONST>
0

>  <SCORE.SYSTEM.DIHEDRAL>
0.0889463

>  <SCORE.SYSTEM.POLAR>
-0.000548005

>  <SCORE.SYSTEM.VDW>
-1.04305

>  <SCORE.SYSTEM.norm>
-0.0500219

>  <SCORE.heavy>
20

>  <SCORE.norm>
-0.66815

$$$$
Baicalein.pdb
  RxDock  02242101513D
librxdock.so/0.1.0
 23 25  0  0  0  0  0  0  0  0999 V2000
  -52.8655   -4.2917   14.8027 O   0  0  0  0  0  0
  -50.9946   -1.0182   17.8403 O   0  0  0  0  0  0
  -49.9192    0.2927   15.7019 O   0  0  0  0  0  0
  -50.3022   -0.6675   13.1378 O   0  0  0  0  0  0
  -52.4218   -3.0458   18.6557 O   0  0  0  0  0  0
  -51.9503   -2.6786   16.3698 C   0  0  0  0  0  0
  -52.1416   -3.1598   15.0761 C   0  0  0  0  0  0
  -53.4230   -4.9910   15.8622 C   0  0  0  0  0  0
  -51.2037   -1.5183   16.5891 C   0  0  0  0  0  0
  -52.5478   -3.4125   17.4961 C   0  0  0  0  0  0
  -53.3149   -4.6261   17.1498 C   0  0  0  0  0  0
  -54.1850   -6.1893   15.4554 C   0  0  0  0  0  0
  -51.5870   -2.4807   13.9906 C   0  0  0  0  0  0
  -50.6491   -0.8415   15.5016 C   0  0  0  0  0  0
  -50.8410   -1.3222   14.2058 C   0  0  0  0  0  0
  -54.9932   -6.1541   14.3166 C   0  0  0  0  0  0
  -54.1021   -7.3631   16.2080 C   0  0  0  0  0  0
  -55.7133   -7.2851   13.9318 C   0  0  0  0  0  0
  -54.8216   -8.4949   15.8236 C   0  0  0  0  0  0
  -55.6271   -8.4556   14.6861 C   0  0  0  0  0  0
  -51.3396   -1.6242   18.5147 H   0  0  0  0  0  0
  -49.7659    0.3949   16.6583 H   0  0  0  0  0  0
  -49.8651   -1.3234   12.5663 H   0  0  0  0  0  0
  1  7  1  0  0  0
  1  8  1  0  0  0
  2  9  1  0  0  0
  2 21  1  0  0  0
  3 14  1  0  0  0
  3 22  1  0  0  0
  4 15  1  0  0  0
  4 23  1  0  0  0
  5 10  2  0  0  0
  6  7  2  0  0  0
  6  9  1  0  0  0
  6 10  1  0  0  0
  7 13  1  0  0  0
  8 11  2  0  0  0
  8 12  1  0  0  0
  9 14  2  0  0  0
 10 11  1  0  0  0
 12 16  2  0  0  0
 12 17  1  0  0  0
 13 15  2  0  0  0
 14 15  1  0  0  0
 16 18  1  0  0  0
 17 19  2  0  0  0
 18 20  2  0  0  0
 19 20  1  0  0  0
M  END
>  <CHROM.0>
-177.97083860,-61.26388849,-61.24125558

>  <CHROM.1>
6.40130289,9.33129169,-47.11749936,-39.78850220,-52.59453187,-3.75920662
15.65912729,-3.05644634,0.99038845,1.53814544

>  <Name>
Baicalein.pdb

>  <RI>
-4.13154e+08

>  <Rbt.Current_Directory>
/root/miniconda3/envs/rdock/share/rxdock-2013.1.1_148c5bd1-0/data/ligands/prepped_ligands/Baicalein

>  <Rbt.Executable>
rbdock/0.1.0

>  <Rbt.Library>
librxdock.so/0.1.0

>  <Rbt.Parameter_File>
/root/miniconda3/envs/rdock/share/rxdock-2013.1.1_148c5bd1-0/data/scripts/dock.prm

>  <Rbt.Receptor>
def.prm

>  <SCORE>
-17.3065

>  <SCORE.INTER>
-18.3852

>  <SCORE.INTER.CONST>
1

>  <SCORE.INTER.POLAR>
-1.21643

>  <SCORE.INTER.REPUL>
0

>  <SCORE.INTER.ROT>
1

>  <SCORE.INTER.VDW>
-20.6493

>  <SCORE.INTER.norm>
-0.919258

>  <SCORE.INTRA>
2.14087

>  <SCORE.INTRA.DIHEDRAL>
3.53072

>  <SCORE.INTRA.DIHEDRAL.0>
1.23589

>  <SCORE.INTRA.POLAR>
0.207103

>  <SCORE.INTRA.POLAR.0>
-0.398182

>  <SCORE.INTRA.REPUL>
0

>  <SCORE.INTRA.REPUL.0>
0

>  <SCORE.INTRA.VDW>
-0.328636

>  <SCORE.INTRA.VDW.0>
0.600462

>  <SCORE.INTRA.norm>
0.107044

>  <SCORE.RESTR>
0

>  <SCORE.RESTR.CAVITY>
0

>  <SCORE.RESTR.norm>
0

>  <SCORE.SYSTEM>
-1.06225

>  <SCORE.SYSTEM.CONST>
0

>  <SCORE.SYSTEM.DIHEDRAL>
0.0215452

>  <SCORE.SYSTEM.VDW>
-1.07303

>  <SCORE.SYSTEM.norm>
-0.0531127

>  <SCORE.heavy>
20

>  <SCORE.norm>
-0.865327

$$$$
Baicalein.pdb
  RxDock  02242101513D
librxdock.so/0.1.0
 23 25  0  0  0  0  0  0  0  0999 V2000
  -53.5203   -4.2612   16.6244 O   0  0  0  0  0  0
  -53.2575   -9.0913   16.8324 O   0  0  0  0  0  0
  -55.5253   -9.2400   15.3216 O   0  0  0  0  0  0
  -56.7883   -6.9339   14.4671 O   0  0  0  0  0  0
  -51.5078   -7.5326   17.9820 O   0  0  0  0  0  0
  -53.3412   -6.6789   16.7603 C   0  0  0  0  0  0
  -53.9801   -5.5185   16.3278 C   0  0  0  0  0  0
  -52.3744   -4.1420   17.3957 C   0  0  0  0  0  0
  -53.8546   -7.9346   16.4266 C   0  0  0  0  0  0
  -52.1199   -6.5569   17.5713 C   0  0  0  0  0  0
  -51.6675   -5.1823   17.8658 C   0  0  0  0  0  0
  -51.9651   -2.7458   17.6506 C   0  0  0  0  0  0
  -55.1390   -5.6071   15.5556 C   0  0  0  0  0  0
  -55.0146   -8.0205   15.6550 C   0  0  0  0  0  0
  -55.6544   -6.8590   15.2208 C   0  0  0  0  0  0
  -51.0849   -2.1019   16.7776 C   0  0  0  0  0  0
  -52.4552   -2.0628   18.7660 C   0  0  0  0  0  0
  -50.6977   -0.7834   17.0175 C   0  0  0  0  0  0
  -52.0688   -0.7440   19.0065 C   0  0  0  0  0  0
  -51.1901   -0.1049   18.1326 C   0  0  0  0  0  0
  -52.3319   -8.9333   17.0759 H   0  0  0  0  0  0
  -55.8309   -9.2033   14.3976 H   0  0  0  0  0  0
  -56.6237   -7.5457   13.7277 H   0  0  0  0  0  0
  1  7  1  0  0  0
  1  8  1  0  0  0
  2  9  1  0  0  0
  2 21  1  0  0  0
  3 14  1  0  0  0
  3 22  1  0  0  0
  4 15  1  0  0  0
  4 23  1  0  0  0
  5 10  2  0  0  0
  6  7  2  0  0  0
  6  9  1  0  0  0
  6 10  1  0  0  0
  7 13  1  0  0  0
  8 11  2  0  0  0
  8 12  1  0  0  0
  9 14  2  0  0  0
 10 11  1  0  0  0
 12 16  2  0  0  0
 12 17  1  0  0  0
 13 15  2  0  0  0
 14 15  1  0  0  0
 16 18  1  0  0  0
 17 19  2  0  0  0
 18 20  2  0  0  0
 19 20  1  0  0  0
M  END
>  <CHROM.0>
-56.01233557,176.91195380,64.04951104

>  <CHROM.1>
-19.97061572,-139.53363729,129.82360515,-90.62949561,-53.22176738,-5.24256914
16.82059518,1.01460143,-0.58885660,-0.00521141

>  <Name>
Baicalein.pdb

>  <RI>
-4.13154e+08

>  <Rbt.Current_Directory>
/root/miniconda3/envs/rdock/share/rxdock-2013.1.1_148c5bd1-0/data/ligands/prepped_ligands/Baicalein

>  <Rbt.Executable>
rbdock/0.1.0

>  <Rbt.Library>
librxdock.so/0.1.0

>  <Rbt.Parameter_File>
/root/miniconda3/envs/rdock/share/rxdock-2013.1.1_148c5bd1-0/data/scripts/dock.prm

>  <Rbt.Receptor>
def.prm

>  <SCORE>
-8.89263

>  <SCORE.INTER>
-12.64

>  <SCORE.INTER.CONST>
1

>  <SCORE.INTER.POLAR>
-0.421571

>  <SCORE.INTER.REPUL>
0

>  <SCORE.INTER.ROT>
1

>  <SCORE.INTER.VDW>
-17.6067

>  <SCORE.INTER.norm>
-0.632

>  <SCORE.INTRA>
4.74044

>  <SCORE.INTRA.DIHEDRAL>
8.97263

>  <SCORE.INTRA.DIHEDRAL.0>
1.23589

>  <SCORE.INTRA.POLAR>
0.398182

>  <SCORE.INTRA.POLAR.0>
-0.398182

>  <SCORE.INTRA.REPUL>
0

>  <SCORE.INTRA.REPUL.0>
0

>  <SCORE.INTRA.VDW>
-1.0997

>  <SCORE.INTRA.VDW.0>
0.600462

>  <SCORE.INTRA.norm>
0.237022

>  <SCORE.RESTR>
0

>  <SCORE.RESTR.CAVITY>
0

>  <SCORE.RESTR.norm>
0

>  <SCORE.SYSTEM>
-0.993066

>  <SCORE.SYSTEM.CONST>
0

>  <SCORE.SYSTEM.DIHEDRAL>
0.120352

>  <SCORE.SYSTEM.POLAR>
-0.00943702

>  <SCORE.SYSTEM.VDW>
-1.02116

>  <SCORE.SYSTEM.norm>
-0.0496533

>  <SCORE.heavy>
20

>  <SCORE.norm>
-0.444631

$$$$
Baicalein.pdb
  RxDock  02242101513D
librxdock.so/0.1.0
 23 25  0  0  0  0  0  0  0  0999 V2000
  -51.4651   -2.8545   14.5983 O   0  0  0  0  0  0
  -46.7881   -1.6029   14.5644 O   0  0  0  0  0  0
  -47.4450    0.6610   13.1894 O   0  0  0  0  0  0
  -50.0774    1.1730   12.5174 O   0  0  0  0  0  0
  -47.6536   -3.7953   15.6857 O   0  0  0  0  0  0
  -49.1074   -2.2746   14.6100 C   0  0  0  0  0  0
  -50.4332   -2.0135   14.2700 C   0  0  0  0  0  0
  -51.1728   -4.0193   15.2913 C   0  0  0  0  0  0
  -48.0961   -1.3805   14.2500 C   0  0  0  0  0  0
  -48.7940   -3.5049   15.3533 C   0  0  0  0  0  0
  -49.9389   -4.3786   15.6802 C   0  0  0  0  0  0
  -52.3564   -4.8483   15.5978 C   0  0  0  0  0  0
  -50.7570   -0.8524   13.5669 C   0  0  0  0  0  0
  -48.4225   -0.2203   13.5458 C   0  0  0  0  0  0
  -49.7500    0.0423   13.2057 C   0  0  0  0  0  0
  -53.5938   -4.5440   15.0251 C   0  0  0  0  0  0
  -52.2447   -5.9395   16.4623 C   0  0  0  0  0  0
  -54.7121   -5.3261   15.3140 C   0  0  0  0  0  0
  -53.3626   -6.7226   16.7515 C   0  0  0  0  0  0
  -54.5958   -6.4155   16.1777 C   0  0  0  0  0  0
  -46.6378   -2.5396   14.7670 H   0  0  0  0  0  0
  -46.6877    0.1565   12.8423 H   0  0  0  0  0  0
  -50.9935    1.0829   12.2003 H   0  0  0  0  0  0
  1  7  1  0  0  0
  1  8  1  0  0  0
  2  9  1  0  0  0
  2 21  1  0  0  0
  3 14  1  0  0  0
  3 22  1  0  0  0
  4 15  1  0  0  0
  4 23  1  0  0  0
  5 10  2  0  0  0
  6  7  2  0  0  0
  6  9  1  0  0  0
  6 10  1  0  0  0
  7 13  1  0  0  0
  8 11  2  0  0  0
  8 12  1  0  0  0
  9 14  2  0  0  0
 10 11  1  0  0  0
 12 16  2  0  0  0
 12 17  1  0  0  0
 13 15  2  0  0  0
 14 15  1  0  0  0
 16 18  1  0  0  0
 17 19  2  0  0  0
 18 20  2  0  0  0
 19 20  1  0  0  0
M  END
>  <CHROM.0>
177.88551987,179.38600446,61.32940042

>  <CHROM.1>
19.40210990,43.95670704,-12.69671772,9.73506148,-50.43196989,-2.84117251
14.73684610,2.28716107,0.13688307,2.61125133

>  <Name>
Baicalein.pdb

>  <RI>
-4.13154e+08

>  <Rbt.Current_Directory>
/root/miniconda3/envs/rdock/share/rxdock-2013.1.1_148c5bd1-0/data/ligands/prepped_ligands/Baicalein

>  <Rbt.Executable>
rbdock/0.1.0

>  <Rbt.Library>
librxdock.so/0.1.0

>  <Rbt.Parameter_File>
/root/miniconda3/envs/rdock/share/rxdock-2013.1.1_148c5bd1-0/data/scripts/dock.prm

>  <Rbt.Receptor>
def.prm

>  <SCORE>
-18.2613

>  <SCORE.INTER>
-19.9115

>  <SCORE.INTER.CONST>
1

>  <SCORE.INTER.POLAR>
-2.51498

>  <SCORE.INTER.REPUL>
0.256594

>  <SCORE.INTER.ROT>
1

>  <SCORE.INTER.VDW>
-19.0436

>  <SCORE.INTER.norm>
-0.995575

>  <SCORE.INTRA>
2.69399

>  <SCORE.INTRA.DIHEDRAL>
1.96223

>  <SCORE.INTRA.DIHEDRAL.0>
1.23589

>  <SCORE.INTRA.POLAR>
0.398182

>  <SCORE.INTRA.POLAR.0>
-0.398182

>  <SCORE.INTRA.REPUL>
0

>  <SCORE.INTRA.REPUL.0>
0

>  <SCORE.INTRA.VDW>
0.359051

>  <SCORE.INTRA.VDW.0>
0.600462

>  <SCORE.INTRA.norm>
0.134699

>  <SCORE.RESTR>
0

>  <SCORE.RESTR.CAVITY>
0

>  <SCORE.RESTR.norm>
0

>  <SCORE.SYSTEM>
-1.04375

>  <SCORE.SYSTEM.CONST>
0

>  <SCORE.SYSTEM.DIHEDRAL>
0.0179162

>  <SCORE.SYSTEM.POLAR>
-0.00413326

>  <SCORE.SYSTEM.VDW>
-1.03865

>  <SCORE.SYSTEM.norm>
-0.0521874

>  <SCORE.heavy>
20

>  <SCORE.norm>
-0.913063

$$$$
Baicalein.pdb
  RxDock  02242101513D
librxdock.so/0.1.0
 23 25  0  0  0  0  0  0  0  0999 V2000
  -52.8068   -4.1241   14.9417 O   0  0  0  0  0  0
  -50.8160   -1.0731   18.1308 O   0  0  0  0  0  0
  -49.8090    0.3800   16.0517 O   0  0  0  0  0  0
  -50.2853   -0.3997   13.4424 O   0  0  0  0  0  0
  -52.2239   -3.1486   18.8537 O   0  0  0  0  0  0
  -51.8301   -2.6254   16.5834 C   0  0  0  0  0  0
  -52.0685   -3.0155   15.2671 C   0  0  0  0  0  0
  -53.3307   -4.8936   15.9691 C   0  0  0  0  0  0
  -51.0708   -1.4849   16.8561 C   0  0  0  0  0  0
  -52.3918   -3.4340   17.6765 C   0  0  0  0  0  0
  -53.1763   -4.6189   17.2743 C   0  0  0  0  0  0
  -54.1121   -6.0591   15.5075 C   0  0  0  0  0  0
  -51.5485   -2.2644   14.2123 C   0  0  0  0  0  0
  -50.5509   -0.7359   15.7992 C   0  0  0  0  0  0
  -50.7899   -1.1254   14.4808 C   0  0  0  0  0  0
  -54.9279   -5.9545   14.3783 C   0  0  0  0  0  0
  -54.0402   -7.2709   16.1983 C   0  0  0  0  0  0
  -55.6662   -7.0545   13.9417 C   0  0  0  0  0  0
  -54.7780   -8.3717   15.7620 C   0  0  0  0  0  0
  -55.5910   -8.2632   14.6344 C   0  0  0  0  0  0
  -50.6154   -0.1242   18.1518 H   0  0  0  0  0  0
  -49.1607    0.1674   16.7467 H   0  0  0  0  0  0
  -50.8783   -0.5076   12.6778 H   0  0  0  0  0  0
  1  7  1  0  0  0
  1  8  1  0  0  0
  2  9  1  0  0  0
  2 21  1  0  0  0
  3 14  1  0  0  0
  3 22  1  0  0  0
  4 15  1  0  0  0
  4 23  1  0  0  0
  5 10  2  0  0  0
  6  7  2  0  0  0
  6  9  1  0  0  0
  6 10  1  0  0  0
  7 13  1  0  0  0
  8 11  2  0  0  0
  8 12  1  0  0  0
  9 14  2  0  0  0
 10 11  1  0  0  0
 12 16  2  0  0  0
 12 17  1  0  0  0
 13 15  2  0  0  0
 14 15  1  0  0  0
 16 18  1  0  0  0
 17 19  2  0  0  0
 18 20  2  0  0  0
 19 20  1  0  0  0
M  END
>  <CHROM.0>
61.87245519,67.85058820,63.09280347

>  <CHROM.1>
-156.55575091,46.23404520,28.68361426,-37.83084507,-52.50387363,-3.64582745
15.81900441,-3.12651515,0.98680826,1.66786674

>  <Name>
Baicalein.pdb

>  <RI>
-4.13154e+08

>  <Rbt.Current_Directory>
/root/miniconda3/envs/rdock/share/rxdock-2013.1.1_148c5bd1-0/data/ligands/prepped_ligands/Baicalein

>  <Rbt.Executable>
rbdock/0.1.0

>  <Rbt.Library>
librxdock.so/0.1.0

>  <Rbt.Parameter_File>
/root/miniconda3/envs/rdock/share/rxdock-2013.1.1_148c5bd1-0/data/scripts/dock.prm

>  <Rbt.Receptor>
def.prm

>  <SCORE>
-15.8302

>  <SCORE.INTER>
-18.3502

>  <SCORE.INTER.CONST>
1

>  <SCORE.INTER.POLAR>
-1.29696

>  <SCORE.INTER.REPUL>
0

>  <SCORE.INTER.ROT>
1

>  <SCORE.INTER.VDW>
-20.3405

>  <SCORE.INTER.norm>
-0.917508

>  <SCORE.INTRA>
3.43511

>  <SCORE.INTRA.DIHEDRAL>
4.97072

>  <SCORE.INTRA.DIHEDRAL.0>
1.23589

>  <SCORE.INTRA.POLAR>
0.398182

>  <SCORE.INTRA.POLAR.0>
-0.398182

>  <SCORE.INTRA.REPUL>
0

>  <SCORE.INTRA.REPUL.0>
0

>  <SCORE.INTRA.VDW>
-0.404067

>  <SCORE.INTRA.VDW.0>
0.600462

>  <SCORE.INTRA.norm>
0.171756

>  <SCORE.RESTR>
0

>  <SCORE.RESTR.CAVITY>
0

>  <SCORE.RESTR.norm>
0

>  <SCORE.SYSTEM>
-0.915179

>  <SCORE.SYSTEM.CONST>
0

>  <SCORE.SYSTEM.DIHEDRAL>
0.328382

>  <SCORE.SYSTEM.POLAR>
-0.00771838

>  <SCORE.SYSTEM.VDW>
-1.05313

>  <SCORE.SYSTEM.norm>
-0.0457589

>  <SCORE.heavy>
20

>  <SCORE.norm>
-0.791511

$$$$
Baicalein.pdb
  RxDock  02242101513D
librxdock.so/0.1.0
 23 25  0  0  0  0  0  0  0  0999 V2000
  -52.8772   -4.3890   15.0151 O   0  0  0  0  0  0
  -53.4807   -8.7772   16.9702 O   0  0  0  0  0  0
  -55.6049   -9.1829   15.3056 O   0  0  0  0  0  0
  -56.3695   -7.2218   13.5131 O   0  0  0  0  0  0
  -51.5881   -7.1453   17.7237 O   0  0  0  0  0  0
  -53.1353   -6.5797   16.0298 C   0  0  0  0  0  0
  -53.5231   -5.5935   15.1250 C   0  0  0  0  0  0
  -51.7968   -4.1406   15.8478 C   0  0  0  0  0  0
  -53.8304   -7.7897   16.0973 C   0  0  0  0  0  0
  -51.9837   -6.3238   16.9088 C   0  0  0  0  0  0
  -51.3244   -5.0114   16.7541 C   0  0  0  0  0  0
  -51.1728   -2.8176   15.6425 C   0  0  0  0  0  0
  -54.6108   -5.8125   14.2788 C   0  0  0  0  0  0
  -54.9187   -8.0059   15.2505 C   0  0  0  0  0  0
  -55.3071   -7.0191   14.3436 C   0  0  0  0  0  0
  -51.1252   -2.2546   14.3648 C   0  0  0  0  0  0
  -50.6262   -2.1235   16.7243 C   0  0  0  0  0  0
  -50.5360   -1.0054   14.1699 C   0  0  0  0  0  0
  -50.0370   -0.8738   16.5303 C   0  0  0  0  0  0
  -49.9917   -0.3153   15.2534 C   0  0  0  0  0  0
  -52.5356   -8.9829   16.8958 H   0  0  0  0  0  0
  -55.9363   -9.3878   14.4130 H   0  0  0  0  0  0
  -57.0113   -7.7924   13.9720 H   0  0  0  0  0  0
  1  7  1  0  0  0
  1  8  1  0  0  0
  2  9  1  0  0  0
  2 21  1  0  0  0
  3 14  1  0  0  0
  3 22  1  0  0  0
  4 15  1  0  0  0
  4 23  1  0  0  0
  5 10  2  0  0  0
  6  7  2  0  0  0
  6  9  1  0  0  0
  6 10  1  0  0  0
  7 13  1  0  0  0
  8 11  2  0  0  0
  8 12  1  0  0  0
  9 14  2  0  0  0
 10 11  1  0  0  0
 12 16  2  0  0  0
 12 17  1  0  0  0
 13 15  2  0  0  0
 14 15  1  0  0  0
 16 18  1  0  0  0
 17 19  2  0  0  0
 18 20  2  0  0  0
 19 20  1  0  0  0
M  END
>  <CHROM.0>
53.46614622,-62.85179270,-60.21242219

>  <CHROM.1>
-51.56627473,-147.91683808,-148.29842263,-34.05047647,-52.77547231,-5.25480820
15.59119994,0.75306814,-0.70158513,-0.56730102

>  <Name>
Baicalein.pdb

>  <RI>
-4.13154e+08

>  <Rbt.Current_Directory>
/root/miniconda3/envs/rdock/share/rxdock-2013.1.1_148c5bd1-0/data/ligands/prepped_ligands/Baicalein

>  <Rbt.Executable>
rbdock/0.1.0

>  <Rbt.Library>
librxdock.so/0.1.0

>  <Rbt.Parameter_File>
/root/miniconda3/envs/rdock/share/rxdock-2013.1.1_148c5bd1-0/data/scripts/dock.prm

>  <Rbt.Receptor>
def.prm

>  <SCORE>
-9.91787

>  <SCORE.INTER>
-12.6111

>  <SCORE.INTER.CONST>
1

>  <SCORE.INTER.POLAR>
-0.506414

>  <SCORE.INTER.REPUL>
0.030258

>  <SCORE.INTER.ROT>
1

>  <SCORE.INTER.VDW>
-17.4406

>  <SCORE.INTER.norm>
-0.630556

>  <SCORE.INTRA>
3.6901

>  <SCORE.INTRA.DIHEDRAL>
5.92202

>  <SCORE.INTRA.DIHEDRAL.0>
1.23589

>  <SCORE.INTRA.POLAR>
0.398182

>  <SCORE.INTRA.POLAR.0>
-0.398182

>  <SCORE.INTRA.REPUL>
0

>  <SCORE.INTRA.REPUL.0>
0

>  <SCORE.INTRA.VDW>
-0.624736

>  <SCORE.INTRA.VDW.0>
0.600462

>  <SCORE.INTRA.norm>
0.184505

>  <SCORE.RESTR>
0

>  <SCORE.RESTR.CAVITY>
0

>  <SCORE.RESTR.norm>
0

>  <SCORE.SYSTEM>
-0.996836

>  <SCORE.SYSTEM.CONST>
0

>  <SCORE.SYSTEM.DIHEDRAL>
0.149588

>  <SCORE.SYSTEM.POLAR>
-0.000228714

>  <SCORE.SYSTEM.VDW>
-1.07085

>  <SCORE.SYSTEM.norm>
-0.0498418

>  <SCORE.heavy>
20

>  <SCORE.norm>
-0.495893

$$$$
Baicalein.pdb
  RxDock  02242101513D
librxdock.so/0.1.0
 23 25  0  0  0  0  0  0  0  0999 V2000
  -52.8222   -4.2745   14.8495 O   0  0  0  0  0  0
  -50.9548   -0.9392   17.8210 O   0  0  0  0  0  0
  -49.8643    0.3191   15.6588 O   0  0  0  0  0  0
  -50.2381   -0.6979   13.1153 O   0  0  0  0  0  0
  -52.3931   -2.9427   18.6753 O   0  0  0  0  0  0
  -51.9090   -2.6293   16.3839 C   0  0  0  0  0  0
  -52.0957   -3.1392   15.1007 C   0  0  0  0  0  0
  -53.3874   -4.9477   15.9218 C   0  0  0  0  0  0
  -51.1595   -1.4668   16.5805 C   0  0  0  0  0  0
  -52.5147   -3.3354   17.5236 C   0  0  0  0  0  0
  -53.2843   -4.5539   17.2012 C   0  0  0  0  0  0
  -54.1515   -6.1524   15.5386 C   0  0  0  0  0  0
  -51.5334   -2.4869   14.0027 C   0  0  0  0  0  0
  -50.5972   -0.8169   15.4806 C   0  0  0  0  0  0
  -50.7844   -1.3263   14.1952 C   0  0  0  0  0  0
  -54.0661   -7.3130   16.3114 C   0  0  0  0  0  0
  -54.9622   -6.1375   14.4013 C   0  0  0  0  0  0
  -54.7871   -8.4512   15.9503 C   0  0  0  0  0  0
  -55.6840   -7.2753   14.0397 C   0  0  0  0  0  0
  -55.5961   -8.4317   14.8138 C   0  0  0  0  0  0
  -50.3473   -0.1841   17.7774 H   0  0  0  0  0  0
  -49.5328    0.6105   14.7906 H   0  0  0  0  0  0
  -49.8616   -1.3753   12.5260 H   0  0  0  0  0  0
  1  7  1  0  0  0
  1  8  1  0  0  0
  2  9  1  0  0  0
  2 21  1  0  0  0
  3 14  1  0  0  0
  3 22  1  0  0  0
  4 15  1  0  0  0
  4 23  1  0  0  0
  5 10  2  0  0  0
  6  7  2  0  0  0
  6  9  1  0  0  0
  6 10  1  0  0  0
  7 13  1  0  0  0
  8 11  2  0  0  0
  8 12  1  0  0  0
  9 14  2  0  0  0
 10 11  1  0  0  0
 12 16  2  0  0  0
 12 17  1  0  0  0
 13 15  2  0  0  0
 14 15  1  0  0  0
 16 18  1  0  0  0
 17 19  2  0  0  0
 18 20  2  0  0  0
 19 20  1  0  0  0
M  END
>  <CHROM.0>
-58.00801368,-61.94359060,-61.79866733

>  <CHROM.1>
174.73044623,178.21198154,-42.72701907,139.65448185,-52.54923452,-3.71825394
15.68524581,-3.05212961,0.98699665,1.50878517

>  <Name>
Baicalein.pdb

>  <RI>
-4.13154e+08

>  <Rbt.Current_Directory>
/root/miniconda3/envs/rdock/share/rxdock-2013.1.1_148c5bd1-0/data/ligands/prepped_ligands/Baicalein

>  <Rbt.Executable>
rbdock/0.1.0

>  <Rbt.Library>
librxdock.so/0.1.0

>  <Rbt.Parameter_File>
/root/miniconda3/envs/rdock/share/rxdock-2013.1.1_148c5bd1-0/data/scripts/dock.prm

>  <Rbt.Receptor>
def.prm

>  <SCORE>
-18.1774

>  <SCORE.INTER>
-18.5696

>  <SCORE.INTER.CONST>
1

>  <SCORE.INTER.POLAR>
-1.21773

>  <SCORE.INTER.REPUL>
0

>  <SCORE.INTER.ROT>
1

>  <SCORE.INTER.VDW>
-20.8293

>  <SCORE.INTER.norm>
-0.92848

>  <SCORE.INTRA>
1.46535

>  <SCORE.INTRA.DIHEDRAL>
3.06932

>  <SCORE.INTRA.DIHEDRAL.0>
1.23589

>  <SCORE.INTRA.POLAR>
0.0983743

>  <SCORE.INTRA.POLAR.0>
-0.398182

>  <SCORE.INTRA.REPUL>
0

>  <SCORE.INTRA.REPUL.0>
0

>  <SCORE.INTRA.VDW>
-0.403785

>  <SCORE.INTRA.VDW.0>
0.600462

>  <SCORE.INTRA.norm>
0.0732673

>  <SCORE.RESTR>
0

>  <SCORE.RESTR.CAVITY>
0

>  <SCORE.RESTR.norm>
0

>  <SCORE.SYSTEM>
-1.07312

>  <SCORE.SYSTEM.CONST>
0

>  <SCORE.SYSTEM.DIHEDRAL>
0.036579

>  <SCORE.SYSTEM.VDW>
-1.09141

>  <SCORE.SYSTEM.norm>
-0.0536561

>  <SCORE.heavy>
20

>  <SCORE.norm>
-0.908869

$$$$
Baicalein.pdb
  RxDock  02242101513D
librxdock.so/0.1.0
 23 25  0  0  0  0  0  0  0  0999 V2000
  -46.4065   -0.4764   14.1883 O   0  0  0  0  0  0
  -51.1515    0.2027   13.5056 O   0  0  0  0  0  0
  -50.5864    1.5519   11.2017 O   0  0  0  0  0  0
  -47.9659    1.8930   10.3895 O   0  0  0  0  0  0
  -50.1928   -1.0899   15.5605 O   0  0  0  0  0  0
  -48.7964   -0.1642   13.8944 C   0  0  0  0  0  0
  -47.4767    0.0093   13.4821 C   0  0  0  0  0  0
  -46.6504   -1.1621   15.3684 C   0  0  0  0  0  0
  -49.8482    0.3518   13.1334 C   0  0  0  0  0  0
  -49.0600   -0.8991   15.1412 C   0  0  0  0  0  0
  -47.8746   -1.3990   15.8664 C   0  0  0  0  0  0
  -45.4294   -1.6453   16.0449 C   0  0  0  0  0  0
  -47.2001    0.7008   12.3020 C   0  0  0  0  0  0
  -49.5688    1.0442   11.9540 C   0  0  0  0  0  0
  -48.2477    1.2175   11.5400 C   0  0  0  0  0  0
  -44.2071   -1.6496   15.3684 C   0  0  0  0  0  0
  -45.4910   -2.1014   17.3637 C   0  0  0  0  0  0
  -43.0536   -2.1060   16.0064 C   0  0  0  0  0  0
  -44.3377   -2.5576   18.0026 C   0  0  0  0  0  0
  -43.1196   -2.5601   17.3239 C   0  0  0  0  0  0
  -51.2416   -0.5010   14.1672 H   0  0  0  0  0  0
  -51.4290    1.3432   11.6431 H   0  0  0  0  0  0
  -48.7995    2.2448   10.0298 H   0  0  0  0  0  0
  1  7  1  0  0  0
  1  8  1  0  0  0
  2  9  1  0  0  0
  2 21  1  0  0  0
  3 14  1  0  0  0
  3 22  1  0  0  0
  4 15  1  0  0  0
  4 23  1  0  0  0
  5 10  2  0  0  0
  6  7  2  0  0  0
  6  9  1  0  0  0
  6 10  1  0  0  0
  7 13  1  0  0  0
  8 11  2  0  0  0
  8 12  1  0  0  0
  9 14  2  0  0  0
 10 11  1  0  0  0
 12 16  2  0  0  0
 12 17  1  0  0  0
 13 15  2  0  0  0
 14 15  1  0  0  0
 16 18  1  0  0  0
 17 19  2  0  0  0
 18 20  2  0  0  0
 19 20  1  0  0  0
M  END
>  <CHROM.0>
-61.88659549,-174.15821705,53.65900733

>  <CHROM.1>
-17.14189195,0.50937294,-175.28007923,-13.37814506,-47.45093079,-0.48306562
14.29347482,-0.81855591,0.06824648,-1.04962424

>  <Name>
Baicalein.pdb

>  <RI>
-4.13154e+08

>  <Rbt.Current_Directory>
/root/miniconda3/envs/rdock/share/rxdock-2013.1.1_148c5bd1-0/data/ligands/prepped_ligands/Baicalein

>  <Rbt.Executable>
rbdock/0.1.0

>  <Rbt.Library>
librxdock.so/0.1.0

>  <Rbt.Parameter_File>
/root/miniconda3/envs/rdock/share/rxdock-2013.1.1_148c5bd1-0/data/scripts/dock.prm

>  <Rbt.Receptor>
def.prm

>  <SCORE>
-7.80743

>  <SCORE.INTER>
-7.28878

>  <SCORE.INTER.CONST>
1

>  <SCORE.INTER.POLAR>
-1.32452

>  <SCORE.INTER.REPUL>
0.364443

>  <SCORE.INTER.ROT>
1

>  <SCORE.INTER.VDW>
-11.0076

>  <SCORE.INTER.norm>
-0.364439

>  <SCORE.INTRA>
-0.016156

>  <SCORE.INTRA.DIHEDRAL>
-0.513159

>  <SCORE.INTRA.DIHEDRAL.0>
1.23589

>  <SCORE.INTRA.POLAR>
0.00601592

>  <SCORE.INTRA.POLAR.0>
-0.398182

>  <SCORE.INTRA.REPUL>
0

>  <SCORE.INTRA.REPUL.0>
0

>  <SCORE.INTRA.VDW>
0.219969

>  <SCORE.INTRA.VDW.0>
0.600462

>  <SCORE.INTRA.norm>
-0.000807799

>  <SCORE.RESTR>
0.459057

>  <SCORE.RESTR.CAVITY>
0.459057

>  <SCORE.RESTR.norm>
0.0229528

>  <SCORE.SYSTEM>
-0.96155

>  <SCORE.SYSTEM.CONST>
0

>  <SCORE.SYSTEM.DIHEDRAL>
0.280839

>  <SCORE.SYSTEM.VDW>
-1.10197

>  <SCORE.SYSTEM.norm>
-0.0480775

>  <SCORE.heavy>
20

>  <SCORE.norm>
-0.390372

$$$$
